/*--------------------------------*- C++ -*----------------------------------*\\
| =========                 |                                                 |
| \\      /  F ield         | OpenFOAM: The Open Source CFD Toolbox           |
|  \\    /   O peration     | Version:  v2512                                 |
|   \\  /    A nd           | Website:  www.openfoam.com                      |
|    \\/     M anipulation  |                                                 |
\*---------------------------------------------------------------------------*/
FoamFile
{
    version     2.0;
    format      ascii;
    class       dictionary;
    object      blockMeshDict;
}
// * * * * * * * * * * * * * * * * * * * * * * * * * * * * * * * * * * * * * //

scale 1;

vertices
(
    (2.500000e-04 0.000000e+00 0.000000e+00) // 0
    (1.530808e-20 2.500000e-04 0.000000e+00) // 1
    (-2.500000e-04 3.061617e-20 0.000000e+00) // 2
    (-4.592425e-20 -2.500000e-04 0.000000e+00) // 3
    (1.875000e-04 0.000000e+00 0.000000e+00) // 4
    (1.148106e-20 1.875000e-04 0.000000e+00) // 5
    (-1.875000e-04 2.296213e-20 0.000000e+00) // 6
    (-3.444319e-20 -1.875000e-04 0.000000e+00) // 7
    (2.500000e-04 0.000000e+00 2.779322e-05) // 8
    (1.530808e-20 2.500000e-04 2.779322e-05) // 9
    (-2.500000e-04 3.061617e-20 2.779322e-05) // 10
    (-4.592425e-20 -2.500000e-04 2.779322e-05) // 11
    (1.875000e-04 0.000000e+00 2.779322e-05) // 12
    (1.148106e-20 1.875000e-04 2.779322e-05) // 13
    (-1.875000e-04 2.296213e-20 2.779322e-05) // 14
    (-3.444319e-20 -1.875000e-04 2.779322e-05) // 15
    (2.500000e-04 0.000000e+00 5.558644e-05) // 16
    (1.530808e-20 2.500000e-04 5.558644e-05) // 17
    (-2.500000e-04 3.061617e-20 5.558644e-05) // 18
    (-4.592425e-20 -2.500000e-04 5.558644e-05) // 19
    (1.875000e-04 0.000000e+00 5.558644e-05) // 20
    (1.148106e-20 1.875000e-04 5.558644e-05) // 21
    (-1.875000e-04 2.296213e-20 5.558644e-05) // 22
    (-3.444319e-20 -1.875000e-04 5.558644e-05) // 23
    (2.500000e-04 0.000000e+00 8.337966e-05) // 24
    (1.530808e-20 2.500000e-04 8.337966e-05) // 25
    (-2.500000e-04 3.061617e-20 8.337966e-05) // 26
    (-4.592425e-20 -2.500000e-04 8.337966e-05) // 27
    (1.875000e-04 0.000000e+00 8.337966e-05) // 28
    (1.148106e-20 1.875000e-04 8.337966e-05) // 29
    (-1.875000e-04 2.296213e-20 8.337966e-05) // 30
    (-3.444319e-20 -1.875000e-04 8.337966e-05) // 31
    (2.500000e-04 0.000000e+00 1.111729e-04) // 32
    (1.530808e-20 2.500000e-04 1.111729e-04) // 33
    (-2.500000e-04 3.061617e-20 1.111729e-04) // 34
    (-4.592425e-20 -2.500000e-04 1.111729e-04) // 35
    (1.875000e-04 0.000000e+00 1.111729e-04) // 36
    (1.148106e-20 1.875000e-04 1.111729e-04) // 37
    (-1.875000e-04 2.296213e-20 1.111729e-04) // 38
    (-3.444319e-20 -1.875000e-04 1.111729e-04) // 39
    (2.500000e-04 0.000000e+00 1.389661e-04) // 40
    (1.530808e-20 2.500000e-04 1.389661e-04) // 41
    (-2.500000e-04 3.061617e-20 1.389661e-04) // 42
    (-4.592425e-20 -2.500000e-04 1.389661e-04) // 43
    (1.875000e-04 0.000000e+00 1.389661e-04) // 44
    (1.148106e-20 1.875000e-04 1.389661e-04) // 45
    (-1.875000e-04 2.296213e-20 1.389661e-04) // 46
    (-3.444319e-20 -1.875000e-04 1.389661e-04) // 47
    (2.500000e-04 0.000000e+00 1.667593e-04) // 48
    (1.530808e-20 2.500000e-04 1.667593e-04) // 49
    (-2.500000e-04 3.061617e-20 1.667593e-04) // 50
    (-4.592425e-20 -2.500000e-04 1.667593e-04) // 51
    (1.875000e-04 0.000000e+00 1.667593e-04) // 52
    (1.148106e-20 1.875000e-04 1.667593e-04) // 53
    (-1.875000e-04 2.296213e-20 1.667593e-04) // 54
    (-3.444319e-20 -1.875000e-04 1.667593e-04) // 55
    (2.500000e-04 0.000000e+00 1.945525e-04) // 56
    (1.530808e-20 2.500000e-04 1.945525e-04) // 57
    (-2.500000e-04 3.061617e-20 1.945525e-04) // 58
    (-4.592425e-20 -2.500000e-04 1.945525e-04) // 59
    (1.875000e-04 0.000000e+00 1.945525e-04) // 60
    (1.148106e-20 1.875000e-04 1.945525e-04) // 61
    (-1.875000e-04 2.296213e-20 1.945525e-04) // 62
    (-3.444319e-20 -1.875000e-04 1.945525e-04) // 63
    (2.500000e-04 0.000000e+00 2.223457e-04) // 64
    (1.530808e-20 2.500000e-04 2.223457e-04) // 65
    (-2.500000e-04 3.061617e-20 2.223457e-04) // 66
    (-4.592425e-20 -2.500000e-04 2.223457e-04) // 67
    (1.875000e-04 0.000000e+00 2.223457e-04) // 68
    (1.148106e-20 1.875000e-04 2.223457e-04) // 69
    (-1.875000e-04 2.296213e-20 2.223457e-04) // 70
    (-3.444319e-20 -1.875000e-04 2.223457e-04) // 71
    (2.500000e-04 0.000000e+00 2.501390e-04) // 72
    (1.530808e-20 2.500000e-04 2.501390e-04) // 73
    (-2.500000e-04 3.061617e-20 2.501390e-04) // 74
    (-4.592425e-20 -2.500000e-04 2.501390e-04) // 75
    (1.875000e-04 0.000000e+00 2.501390e-04) // 76
    (1.148106e-20 1.875000e-04 2.501390e-04) // 77
    (-1.875000e-04 2.296213e-20 2.501390e-04) // 78
    (-3.444319e-20 -1.875000e-04 2.501390e-04) // 79
    (2.500000e-04 0.000000e+00 2.779322e-04) // 80
    (1.530808e-20 2.500000e-04 2.779322e-04) // 81
    (-2.500000e-04 3.061617e-20 2.779322e-04) // 82
    (-4.592425e-20 -2.500000e-04 2.779322e-04) // 83
    (1.875000e-04 0.000000e+00 2.779322e-04) // 84
    (1.148106e-20 1.875000e-04 2.779322e-04) // 85
    (-1.875000e-04 2.296213e-20 2.779322e-04) // 86
    (-3.444319e-20 -1.875000e-04 2.779322e-04) // 87
    (2.500000e-04 0.000000e+00 3.057254e-04) // 88
    (1.530808e-20 2.500000e-04 3.057254e-04) // 89
    (-2.500000e-04 3.061617e-20 3.057254e-04) // 90
    (-4.592425e-20 -2.500000e-04 3.057254e-04) // 91
    (1.875000e-04 0.000000e+00 3.057254e-04) // 92
    (1.148106e-20 1.875000e-04 3.057254e-04) // 93
    (-1.875000e-04 2.296213e-20 3.057254e-04) // 94
    (-3.444319e-20 -1.875000e-04 3.057254e-04) // 95
    (2.500000e-04 0.000000e+00 3.335186e-04) // 96
    (1.530808e-20 2.500000e-04 3.335186e-04) // 97
    (-2.500000e-04 3.061617e-20 3.335186e-04) // 98
    (-4.592425e-20 -2.500000e-04 3.335186e-04) // 99
    (1.875000e-04 0.000000e+00 3.335186e-04) // 100
    (1.148106e-20 1.875000e-04 3.335186e-04) // 101
    (-1.875000e-04 2.296213e-20 3.335186e-04) // 102
    (-3.444319e-20 -1.875000e-04 3.335186e-04) // 103
    (2.500000e-04 0.000000e+00 3.613118e-04) // 104
    (1.530808e-20 2.500000e-04 3.613118e-04) // 105
    (-2.500000e-04 3.061617e-20 3.613118e-04) // 106
    (-4.592425e-20 -2.500000e-04 3.613118e-04) // 107
    (1.875000e-04 0.000000e+00 3.613118e-04) // 108
    (1.148106e-20 1.875000e-04 3.613118e-04) // 109
    (-1.875000e-04 2.296213e-20 3.613118e-04) // 110
    (-3.444319e-20 -1.875000e-04 3.613118e-04) // 111
    (2.500000e-04 0.000000e+00 3.891051e-04) // 112
    (1.530808e-20 2.500000e-04 3.891051e-04) // 113
    (-2.500000e-04 3.061617e-20 3.891051e-04) // 114
    (-4.592425e-20 -2.500000e-04 3.891051e-04) // 115
    (1.875000e-04 0.000000e+00 3.891051e-04) // 116
    (1.148106e-20 1.875000e-04 3.891051e-04) // 117
    (-1.875000e-04 2.296213e-20 3.891051e-04) // 118
    (-3.444319e-20 -1.875000e-04 3.891051e-04) // 119
    (2.500000e-04 0.000000e+00 4.168983e-04) // 120
    (1.530808e-20 2.500000e-04 4.168983e-04) // 121
    (-2.500000e-04 3.061617e-20 4.168983e-04) // 122
    (-4.592425e-20 -2.500000e-04 4.168983e-04) // 123
    (1.875000e-04 0.000000e+00 4.168983e-04) // 124
    (1.148106e-20 1.875000e-04 4.168983e-04) // 125
    (-1.875000e-04 2.296213e-20 4.168983e-04) // 126
    (-3.444319e-20 -1.875000e-04 4.168983e-04) // 127
    (2.500000e-04 0.000000e+00 4.446915e-04) // 128
    (1.530808e-20 2.500000e-04 4.446915e-04) // 129
    (-2.500000e-04 3.061617e-20 4.446915e-04) // 130
    (-4.592425e-20 -2.500000e-04 4.446915e-04) // 131
    (1.875000e-04 0.000000e+00 4.446915e-04) // 132
    (1.148106e-20 1.875000e-04 4.446915e-04) // 133
    (-1.875000e-04 2.296213e-20 4.446915e-04) // 134
    (-3.444319e-20 -1.875000e-04 4.446915e-04) // 135
    (2.500000e-04 0.000000e+00 4.724847e-04) // 136
    (1.530808e-20 2.500000e-04 4.724847e-04) // 137
    (-2.500000e-04 3.061617e-20 4.724847e-04) // 138
    (-4.592425e-20 -2.500000e-04 4.724847e-04) // 139
    (1.875000e-04 0.000000e+00 4.724847e-04) // 140
    (1.148106e-20 1.875000e-04 4.724847e-04) // 141
    (-1.875000e-04 2.296213e-20 4.724847e-04) // 142
    (-3.444319e-20 -1.875000e-04 4.724847e-04) // 143
    (2.500000e-04 0.000000e+00 5.002779e-04) // 144
    (1.530808e-20 2.500000e-04 5.002779e-04) // 145
    (-2.500000e-04 3.061617e-20 5.002779e-04) // 146
    (-4.592425e-20 -2.500000e-04 5.002779e-04) // 147
    (1.875000e-04 0.000000e+00 5.002779e-04) // 148
    (1.148106e-20 1.875000e-04 5.002779e-04) // 149
    (-1.875000e-04 2.296213e-20 5.002779e-04) // 150
    (-3.444319e-20 -1.875000e-04 5.002779e-04) // 151
    (2.500000e-04 0.000000e+00 5.280712e-04) // 152
    (1.530808e-20 2.500000e-04 5.280712e-04) // 153
    (-2.500000e-04 3.061617e-20 5.280712e-04) // 154
    (-4.592425e-20 -2.500000e-04 5.280712e-04) // 155
    (1.875000e-04 0.000000e+00 5.280712e-04) // 156
    (1.148106e-20 1.875000e-04 5.280712e-04) // 157
    (-1.875000e-04 2.296213e-20 5.280712e-04) // 158
    (-3.444319e-20 -1.875000e-04 5.280712e-04) // 159
    (2.500000e-04 0.000000e+00 5.558644e-04) // 160
    (1.530808e-20 2.500000e-04 5.558644e-04) // 161
    (-2.500000e-04 3.061617e-20 5.558644e-04) // 162
    (-4.592425e-20 -2.500000e-04 5.558644e-04) // 163
    (1.875000e-04 0.000000e+00 5.558644e-04) // 164
    (1.148106e-20 1.875000e-04 5.558644e-04) // 165
    (-1.875000e-04 2.296213e-20 5.558644e-04) // 166
    (-3.444319e-20 -1.875000e-04 5.558644e-04) // 167
    (2.500000e-04 0.000000e+00 5.836576e-04) // 168
    (1.530808e-20 2.500000e-04 5.836576e-04) // 169
    (-2.500000e-04 3.061617e-20 5.836576e-04) // 170
    (-4.592425e-20 -2.500000e-04 5.836576e-04) // 171
    (1.875000e-04 0.000000e+00 5.836576e-04) // 172
    (1.148106e-20 1.875000e-04 5.836576e-04) // 173
    (-1.875000e-04 2.296213e-20 5.836576e-04) // 174
    (-3.444319e-20 -1.875000e-04 5.836576e-04) // 175
    (2.500000e-04 0.000000e+00 6.114508e-04) // 176
    (1.530808e-20 2.500000e-04 6.114508e-04) // 177
    (-2.500000e-04 3.061617e-20 6.114508e-04) // 178
    (-4.592425e-20 -2.500000e-04 6.114508e-04) // 179
    (1.875000e-04 0.000000e+00 6.114508e-04) // 180
    (1.148106e-20 1.875000e-04 6.114508e-04) // 181
    (-1.875000e-04 2.296213e-20 6.114508e-04) // 182
    (-3.444319e-20 -1.875000e-04 6.114508e-04) // 183
    (2.500000e-04 0.000000e+00 6.392440e-04) // 184
    (1.530808e-20 2.500000e-04 6.392440e-04) // 185
    (-2.500000e-04 3.061617e-20 6.392440e-04) // 186
    (-4.592425e-20 -2.500000e-04 6.392440e-04) // 187
    (1.875000e-04 0.000000e+00 6.392440e-04) // 188
    (1.148106e-20 1.875000e-04 6.392440e-04) // 189
    (-1.875000e-04 2.296213e-20 6.392440e-04) // 190
    (-3.444319e-20 -1.875000e-04 6.392440e-04) // 191
    (2.500000e-04 0.000000e+00 6.670372e-04) // 192
    (1.530808e-20 2.500000e-04 6.670372e-04) // 193
    (-2.500000e-04 3.061617e-20 6.670372e-04) // 194
    (-4.592425e-20 -2.500000e-04 6.670372e-04) // 195
    (1.875000e-04 0.000000e+00 6.670372e-04) // 196
    (1.148106e-20 1.875000e-04 6.670372e-04) // 197
    (-1.875000e-04 2.296213e-20 6.670372e-04) // 198
    (-3.444319e-20 -1.875000e-04 6.670372e-04) // 199
    (2.500000e-04 0.000000e+00 6.948305e-04) // 200
    (1.530808e-20 2.500000e-04 6.948305e-04) // 201
    (-2.500000e-04 3.061617e-20 6.948305e-04) // 202
    (-4.592425e-20 -2.500000e-04 6.948305e-04) // 203
    (1.875000e-04 0.000000e+00 6.948305e-04) // 204
    (1.148106e-20 1.875000e-04 6.948305e-04) // 205
    (-1.875000e-04 2.296213e-20 6.948305e-04) // 206
    (-3.444319e-20 -1.875000e-04 6.948305e-04) // 207
    (2.500000e-04 0.000000e+00 7.226237e-04) // 208
    (1.530808e-20 2.500000e-04 7.226237e-04) // 209
    (-2.500000e-04 3.061617e-20 7.226237e-04) // 210
    (-4.592425e-20 -2.500000e-04 7.226237e-04) // 211
    (1.875000e-04 0.000000e+00 7.226237e-04) // 212
    (1.148106e-20 1.875000e-04 7.226237e-04) // 213
    (-1.875000e-04 2.296213e-20 7.226237e-04) // 214
    (-3.444319e-20 -1.875000e-04 7.226237e-04) // 215
    (2.500000e-04 0.000000e+00 7.504169e-04) // 216
    (1.530808e-20 2.500000e-04 7.504169e-04) // 217
    (-2.500000e-04 3.061617e-20 7.504169e-04) // 218
    (-4.592425e-20 -2.500000e-04 7.504169e-04) // 219
    (1.875000e-04 0.000000e+00 7.504169e-04) // 220
    (1.148106e-20 1.875000e-04 7.504169e-04) // 221
    (-1.875000e-04 2.296213e-20 7.504169e-04) // 222
    (-3.444319e-20 -1.875000e-04 7.504169e-04) // 223
    (2.500000e-04 0.000000e+00 7.782101e-04) // 224
    (1.530808e-20 2.500000e-04 7.782101e-04) // 225
    (-2.500000e-04 3.061617e-20 7.782101e-04) // 226
    (-4.592425e-20 -2.500000e-04 7.782101e-04) // 227
    (1.875000e-04 0.000000e+00 7.782101e-04) // 228
    (1.148106e-20 1.875000e-04 7.782101e-04) // 229
    (-1.875000e-04 2.296213e-20 7.782101e-04) // 230
    (-3.444319e-20 -1.875000e-04 7.782101e-04) // 231
    (2.500000e-04 0.000000e+00 8.060033e-04) // 232
    (1.530808e-20 2.500000e-04 8.060033e-04) // 233
    (-2.500000e-04 3.061617e-20 8.060033e-04) // 234
    (-4.592425e-20 -2.500000e-04 8.060033e-04) // 235
    (1.875000e-04 0.000000e+00 8.060033e-04) // 236
    (1.148106e-20 1.875000e-04 8.060033e-04) // 237
    (-1.875000e-04 2.296213e-20 8.060033e-04) // 238
    (-3.444319e-20 -1.875000e-04 8.060033e-04) // 239
    (2.500000e-04 0.000000e+00 8.337966e-04) // 240
    (1.530808e-20 2.500000e-04 8.337966e-04) // 241
    (-2.500000e-04 3.061617e-20 8.337966e-04) // 242
    (-4.592425e-20 -2.500000e-04 8.337966e-04) // 243
    (1.875000e-04 0.000000e+00 8.337966e-04) // 244
    (1.148106e-20 1.875000e-04 8.337966e-04) // 245
    (-1.875000e-04 2.296213e-20 8.337966e-04) // 246
    (-3.444319e-20 -1.875000e-04 8.337966e-04) // 247
    (2.500000e-04 0.000000e+00 8.615898e-04) // 248
    (1.530808e-20 2.500000e-04 8.615898e-04) // 249
    (-2.500000e-04 3.061617e-20 8.615898e-04) // 250
    (-4.592425e-20 -2.500000e-04 8.615898e-04) // 251
    (1.875000e-04 0.000000e+00 8.615898e-04) // 252
    (1.148106e-20 1.875000e-04 8.615898e-04) // 253
    (-1.875000e-04 2.296213e-20 8.615898e-04) // 254
    (-3.444319e-20 -1.875000e-04 8.615898e-04) // 255
    (2.500000e-04 0.000000e+00 8.893830e-04) // 256
    (1.530808e-20 2.500000e-04 8.893830e-04) // 257
    (-2.500000e-04 3.061617e-20 8.893830e-04) // 258
    (-4.592425e-20 -2.500000e-04 8.893830e-04) // 259
    (1.875000e-04 0.000000e+00 8.893830e-04) // 260
    (1.148106e-20 1.875000e-04 8.893830e-04) // 261
    (-1.875000e-04 2.296213e-20 8.893830e-04) // 262
    (-3.444319e-20 -1.875000e-04 8.893830e-04) // 263
    (2.500000e-04 0.000000e+00 9.171762e-04) // 264
    (1.530808e-20 2.500000e-04 9.171762e-04) // 265
    (-2.500000e-04 3.061617e-20 9.171762e-04) // 266
    (-4.592425e-20 -2.500000e-04 9.171762e-04) // 267
    (1.875000e-04 0.000000e+00 9.171762e-04) // 268
    (1.148106e-20 1.875000e-04 9.171762e-04) // 269
    (-1.875000e-04 2.296213e-20 9.171762e-04) // 270
    (-3.444319e-20 -1.875000e-04 9.171762e-04) // 271
    (2.500000e-04 0.000000e+00 9.449694e-04) // 272
    (1.530808e-20 2.500000e-04 9.449694e-04) // 273
    (-2.500000e-04 3.061617e-20 9.449694e-04) // 274
    (-4.592425e-20 -2.500000e-04 9.449694e-04) // 275
    (1.875000e-04 0.000000e+00 9.449694e-04) // 276
    (1.148106e-20 1.875000e-04 9.449694e-04) // 277
    (-1.875000e-04 2.296213e-20 9.449694e-04) // 278
    (-3.444319e-20 -1.875000e-04 9.449694e-04) // 279
    (2.500000e-04 0.000000e+00 9.727626e-04) // 280
    (1.530808e-20 2.500000e-04 9.727626e-04) // 281
    (-2.500000e-04 3.061617e-20 9.727626e-04) // 282
    (-4.592425e-20 -2.500000e-04 9.727626e-04) // 283
    (1.875000e-04 0.000000e+00 9.727626e-04) // 284
    (1.148106e-20 1.875000e-04 9.727626e-04) // 285
    (-1.875000e-04 2.296213e-20 9.727626e-04) // 286
    (-3.444319e-20 -1.875000e-04 9.727626e-04) // 287
    (2.500000e-04 0.000000e+00 1.000556e-03) // 288
    (1.530808e-20 2.500000e-04 1.000556e-03) // 289
    (-2.500000e-04 3.061617e-20 1.000556e-03) // 290
    (-4.592425e-20 -2.500000e-04 1.000556e-03) // 291
    (1.875000e-04 0.000000e+00 1.000556e-03) // 292
    (1.148106e-20 1.875000e-04 1.000556e-03) // 293
    (-1.875000e-04 2.296213e-20 1.000556e-03) // 294
    (-3.444319e-20 -1.875000e-04 1.000556e-03) // 295
    (2.500000e-04 0.000000e+00 1.028349e-03) // 296
    (1.530808e-20 2.500000e-04 1.028349e-03) // 297
    (-2.500000e-04 3.061617e-20 1.028349e-03) // 298
    (-4.592425e-20 -2.500000e-04 1.028349e-03) // 299
    (1.875000e-04 0.000000e+00 1.028349e-03) // 300
    (1.148106e-20 1.875000e-04 1.028349e-03) // 301
    (-1.875000e-04 2.296213e-20 1.028349e-03) // 302
    (-3.444319e-20 -1.875000e-04 1.028349e-03) // 303
    (2.500000e-04 0.000000e+00 1.056142e-03) // 304
    (1.530808e-20 2.500000e-04 1.056142e-03) // 305
    (-2.500000e-04 3.061617e-20 1.056142e-03) // 306
    (-4.592425e-20 -2.500000e-04 1.056142e-03) // 307
    (1.875000e-04 0.000000e+00 1.056142e-03) // 308
    (1.148106e-20 1.875000e-04 1.056142e-03) // 309
    (-1.875000e-04 2.296213e-20 1.056142e-03) // 310
    (-3.444319e-20 -1.875000e-04 1.056142e-03) // 311
    (2.500000e-04 0.000000e+00 1.083936e-03) // 312
    (1.530808e-20 2.500000e-04 1.083936e-03) // 313
    (-2.500000e-04 3.061617e-20 1.083936e-03) // 314
    (-4.592425e-20 -2.500000e-04 1.083936e-03) // 315
    (1.875000e-04 0.000000e+00 1.083936e-03) // 316
    (1.148106e-20 1.875000e-04 1.083936e-03) // 317
    (-1.875000e-04 2.296213e-20 1.083936e-03) // 318
    (-3.444319e-20 -1.875000e-04 1.083936e-03) // 319
    (2.500000e-04 0.000000e+00 1.111729e-03) // 320
    (1.530808e-20 2.500000e-04 1.111729e-03) // 321
    (-2.500000e-04 3.061617e-20 1.111729e-03) // 322
    (-4.592425e-20 -2.500000e-04 1.111729e-03) // 323
    (1.875000e-04 0.000000e+00 1.111729e-03) // 324
    (1.148106e-20 1.875000e-04 1.111729e-03) // 325
    (-1.875000e-04 2.296213e-20 1.111729e-03) // 326
    (-3.444319e-20 -1.875000e-04 1.111729e-03) // 327
    (2.500000e-04 0.000000e+00 1.139522e-03) // 328
    (1.530808e-20 2.500000e-04 1.139522e-03) // 329
    (-2.500000e-04 3.061617e-20 1.139522e-03) // 330
    (-4.592425e-20 -2.500000e-04 1.139522e-03) // 331
    (1.875000e-04 0.000000e+00 1.139522e-03) // 332
    (1.148106e-20 1.875000e-04 1.139522e-03) // 333
    (-1.875000e-04 2.296213e-20 1.139522e-03) // 334
    (-3.444319e-20 -1.875000e-04 1.139522e-03) // 335
    (2.500000e-04 0.000000e+00 1.167315e-03) // 336
    (1.530808e-20 2.500000e-04 1.167315e-03) // 337
    (-2.500000e-04 3.061617e-20 1.167315e-03) // 338
    (-4.592425e-20 -2.500000e-04 1.167315e-03) // 339
    (1.875000e-04 0.000000e+00 1.167315e-03) // 340
    (1.148106e-20 1.875000e-04 1.167315e-03) // 341
    (-1.875000e-04 2.296213e-20 1.167315e-03) // 342
    (-3.444319e-20 -1.875000e-04 1.167315e-03) // 343
    (2.500000e-04 0.000000e+00 1.195108e-03) // 344
    (1.530808e-20 2.500000e-04 1.195108e-03) // 345
    (-2.500000e-04 3.061617e-20 1.195108e-03) // 346
    (-4.592425e-20 -2.500000e-04 1.195108e-03) // 347
    (1.875000e-04 0.000000e+00 1.195108e-03) // 348
    (1.148106e-20 1.875000e-04 1.195108e-03) // 349
    (-1.875000e-04 2.296213e-20 1.195108e-03) // 350
    (-3.444319e-20 -1.875000e-04 1.195108e-03) // 351
    (2.500000e-04 0.000000e+00 1.222902e-03) // 352
    (1.530808e-20 2.500000e-04 1.222902e-03) // 353
    (-2.500000e-04 3.061617e-20 1.222902e-03) // 354
    (-4.592425e-20 -2.500000e-04 1.222902e-03) // 355
    (1.875000e-04 0.000000e+00 1.222902e-03) // 356
    (1.148106e-20 1.875000e-04 1.222902e-03) // 357
    (-1.875000e-04 2.296213e-20 1.222902e-03) // 358
    (-3.444319e-20 -1.875000e-04 1.222902e-03) // 359
    (2.500000e-04 0.000000e+00 1.250695e-03) // 360
    (1.530808e-20 2.500000e-04 1.250695e-03) // 361
    (-2.500000e-04 3.061617e-20 1.250695e-03) // 362
    (-4.592425e-20 -2.500000e-04 1.250695e-03) // 363
    (1.875000e-04 0.000000e+00 1.250695e-03) // 364
    (1.148106e-20 1.875000e-04 1.250695e-03) // 365
    (-1.875000e-04 2.296213e-20 1.250695e-03) // 366
    (-3.444319e-20 -1.875000e-04 1.250695e-03) // 367
    (2.500000e-04 0.000000e+00 1.278488e-03) // 368
    (1.530808e-20 2.500000e-04 1.278488e-03) // 369
    (-2.500000e-04 3.061617e-20 1.278488e-03) // 370
    (-4.592425e-20 -2.500000e-04 1.278488e-03) // 371
    (1.875000e-04 0.000000e+00 1.278488e-03) // 372
    (1.148106e-20 1.875000e-04 1.278488e-03) // 373
    (-1.875000e-04 2.296213e-20 1.278488e-03) // 374
    (-3.444319e-20 -1.875000e-04 1.278488e-03) // 375
    (2.500000e-04 0.000000e+00 1.306281e-03) // 376
    (1.530808e-20 2.500000e-04 1.306281e-03) // 377
    (-2.500000e-04 3.061617e-20 1.306281e-03) // 378
    (-4.592425e-20 -2.500000e-04 1.306281e-03) // 379
    (1.875000e-04 0.000000e+00 1.306281e-03) // 380
    (1.148106e-20 1.875000e-04 1.306281e-03) // 381
    (-1.875000e-04 2.296213e-20 1.306281e-03) // 382
    (-3.444319e-20 -1.875000e-04 1.306281e-03) // 383
    (2.500000e-04 0.000000e+00 1.334074e-03) // 384
    (1.530808e-20 2.500000e-04 1.334074e-03) // 385
    (-2.500000e-04 3.061617e-20 1.334074e-03) // 386
    (-4.592425e-20 -2.500000e-04 1.334074e-03) // 387
    (1.875000e-04 0.000000e+00 1.334074e-03) // 388
    (1.148106e-20 1.875000e-04 1.334074e-03) // 389
    (-1.875000e-04 2.296213e-20 1.334074e-03) // 390
    (-3.444319e-20 -1.875000e-04 1.334074e-03) // 391
    (2.500000e-04 0.000000e+00 1.361868e-03) // 392
    (1.530808e-20 2.500000e-04 1.361868e-03) // 393
    (-2.500000e-04 3.061617e-20 1.361868e-03) // 394
    (-4.592425e-20 -2.500000e-04 1.361868e-03) // 395
    (1.875000e-04 0.000000e+00 1.361868e-03) // 396
    (1.148106e-20 1.875000e-04 1.361868e-03) // 397
    (-1.875000e-04 2.296213e-20 1.361868e-03) // 398
    (-3.444319e-20 -1.875000e-04 1.361868e-03) // 399
    (2.500000e-04 0.000000e+00 1.389661e-03) // 400
    (1.530808e-20 2.500000e-04 1.389661e-03) // 401
    (-2.500000e-04 3.061617e-20 1.389661e-03) // 402
    (-4.592425e-20 -2.500000e-04 1.389661e-03) // 403
    (1.875000e-04 0.000000e+00 1.389661e-03) // 404
    (1.148106e-20 1.875000e-04 1.389661e-03) // 405
    (-1.875000e-04 2.296213e-20 1.389661e-03) // 406
    (-3.444319e-20 -1.875000e-04 1.389661e-03) // 407
    (2.500000e-04 0.000000e+00 1.417454e-03) // 408
    (1.530808e-20 2.500000e-04 1.417454e-03) // 409
    (-2.500000e-04 3.061617e-20 1.417454e-03) // 410
    (-4.592425e-20 -2.500000e-04 1.417454e-03) // 411
    (1.875000e-04 0.000000e+00 1.417454e-03) // 412
    (1.148106e-20 1.875000e-04 1.417454e-03) // 413
    (-1.875000e-04 2.296213e-20 1.417454e-03) // 414
    (-3.444319e-20 -1.875000e-04 1.417454e-03) // 415
    (2.500000e-04 0.000000e+00 1.445247e-03) // 416
    (1.530808e-20 2.500000e-04 1.445247e-03) // 417
    (-2.500000e-04 3.061617e-20 1.445247e-03) // 418
    (-4.592425e-20 -2.500000e-04 1.445247e-03) // 419
    (1.875000e-04 0.000000e+00 1.445247e-03) // 420
    (1.148106e-20 1.875000e-04 1.445247e-03) // 421
    (-1.875000e-04 2.296213e-20 1.445247e-03) // 422
    (-3.444319e-20 -1.875000e-04 1.445247e-03) // 423
    (2.500000e-04 0.000000e+00 1.473041e-03) // 424
    (1.530808e-20 2.500000e-04 1.473041e-03) // 425
    (-2.500000e-04 3.061617e-20 1.473041e-03) // 426
    (-4.592425e-20 -2.500000e-04 1.473041e-03) // 427
    (1.875000e-04 0.000000e+00 1.473041e-03) // 428
    (1.148106e-20 1.875000e-04 1.473041e-03) // 429
    (-1.875000e-04 2.296213e-20 1.473041e-03) // 430
    (-3.444319e-20 -1.875000e-04 1.473041e-03) // 431
    (2.500000e-04 0.000000e+00 1.500834e-03) // 432
    (1.530808e-20 2.500000e-04 1.500834e-03) // 433
    (-2.500000e-04 3.061617e-20 1.500834e-03) // 434
    (-4.592425e-20 -2.500000e-04 1.500834e-03) // 435
    (1.875000e-04 0.000000e+00 1.500834e-03) // 436
    (1.148106e-20 1.875000e-04 1.500834e-03) // 437
    (-1.875000e-04 2.296213e-20 1.500834e-03) // 438
    (-3.444319e-20 -1.875000e-04 1.500834e-03) // 439
    (2.500000e-04 0.000000e+00 1.528627e-03) // 440
    (1.530808e-20 2.500000e-04 1.528627e-03) // 441
    (-2.500000e-04 3.061617e-20 1.528627e-03) // 442
    (-4.592425e-20 -2.500000e-04 1.528627e-03) // 443
    (1.875000e-04 0.000000e+00 1.528627e-03) // 444
    (1.148106e-20 1.875000e-04 1.528627e-03) // 445
    (-1.875000e-04 2.296213e-20 1.528627e-03) // 446
    (-3.444319e-20 -1.875000e-04 1.528627e-03) // 447
    (2.500000e-04 0.000000e+00 1.556420e-03) // 448
    (1.530808e-20 2.500000e-04 1.556420e-03) // 449
    (-2.500000e-04 3.061617e-20 1.556420e-03) // 450
    (-4.592425e-20 -2.500000e-04 1.556420e-03) // 451
    (1.875000e-04 0.000000e+00 1.556420e-03) // 452
    (1.148106e-20 1.875000e-04 1.556420e-03) // 453
    (-1.875000e-04 2.296213e-20 1.556420e-03) // 454
    (-3.444319e-20 -1.875000e-04 1.556420e-03) // 455
    (2.500000e-04 0.000000e+00 1.584213e-03) // 456
    (1.530808e-20 2.500000e-04 1.584213e-03) // 457
    (-2.500000e-04 3.061617e-20 1.584213e-03) // 458
    (-4.592425e-20 -2.500000e-04 1.584213e-03) // 459
    (1.875000e-04 0.000000e+00 1.584213e-03) // 460
    (1.148106e-20 1.875000e-04 1.584213e-03) // 461
    (-1.875000e-04 2.296213e-20 1.584213e-03) // 462
    (-3.444319e-20 -1.875000e-04 1.584213e-03) // 463
    (2.500000e-04 0.000000e+00 1.612007e-03) // 464
    (1.530808e-20 2.500000e-04 1.612007e-03) // 465
    (-2.500000e-04 3.061617e-20 1.612007e-03) // 466
    (-4.592425e-20 -2.500000e-04 1.612007e-03) // 467
    (1.875000e-04 0.000000e+00 1.612007e-03) // 468
    (1.148106e-20 1.875000e-04 1.612007e-03) // 469
    (-1.875000e-04 2.296213e-20 1.612007e-03) // 470
    (-3.444319e-20 -1.875000e-04 1.612007e-03) // 471
    (2.500000e-04 0.000000e+00 1.639800e-03) // 472
    (1.530808e-20 2.500000e-04 1.639800e-03) // 473
    (-2.500000e-04 3.061617e-20 1.639800e-03) // 474
    (-4.592425e-20 -2.500000e-04 1.639800e-03) // 475
    (1.875000e-04 0.000000e+00 1.639800e-03) // 476
    (1.148106e-20 1.875000e-04 1.639800e-03) // 477
    (-1.875000e-04 2.296213e-20 1.639800e-03) // 478
    (-3.444319e-20 -1.875000e-04 1.639800e-03) // 479
    (2.500000e-04 0.000000e+00 1.667593e-03) // 480
    (1.530808e-20 2.500000e-04 1.667593e-03) // 481
    (-2.500000e-04 3.061617e-20 1.667593e-03) // 482
    (-4.592425e-20 -2.500000e-04 1.667593e-03) // 483
    (1.875000e-04 0.000000e+00 1.667593e-03) // 484
    (1.148106e-20 1.875000e-04 1.667593e-03) // 485
    (-1.875000e-04 2.296213e-20 1.667593e-03) // 486
    (-3.444319e-20 -1.875000e-04 1.667593e-03) // 487
    (2.500000e-04 0.000000e+00 1.695386e-03) // 488
    (1.530808e-20 2.500000e-04 1.695386e-03) // 489
    (-2.500000e-04 3.061617e-20 1.695386e-03) // 490
    (-4.592425e-20 -2.500000e-04 1.695386e-03) // 491
    (1.875000e-04 0.000000e+00 1.695386e-03) // 492
    (1.148106e-20 1.875000e-04 1.695386e-03) // 493
    (-1.875000e-04 2.296213e-20 1.695386e-03) // 494
    (-3.444319e-20 -1.875000e-04 1.695386e-03) // 495
    (2.500000e-04 0.000000e+00 1.723180e-03) // 496
    (1.530808e-20 2.500000e-04 1.723180e-03) // 497
    (-2.500000e-04 3.061617e-20 1.723180e-03) // 498
    (-4.592425e-20 -2.500000e-04 1.723180e-03) // 499
    (1.875000e-04 0.000000e+00 1.723180e-03) // 500
    (1.148106e-20 1.875000e-04 1.723180e-03) // 501
    (-1.875000e-04 2.296213e-20 1.723180e-03) // 502
    (-3.444319e-20 -1.875000e-04 1.723180e-03) // 503
    (2.500000e-04 0.000000e+00 1.750973e-03) // 504
    (1.530808e-20 2.500000e-04 1.750973e-03) // 505
    (-2.500000e-04 3.061617e-20 1.750973e-03) // 506
    (-4.592425e-20 -2.500000e-04 1.750973e-03) // 507
    (1.875000e-04 0.000000e+00 1.750973e-03) // 508
    (1.148106e-20 1.875000e-04 1.750973e-03) // 509
    (-1.875000e-04 2.296213e-20 1.750973e-03) // 510
    (-3.444319e-20 -1.875000e-04 1.750973e-03) // 511
    (2.500000e-04 0.000000e+00 1.778766e-03) // 512
    (1.530808e-20 2.500000e-04 1.778766e-03) // 513
    (-2.500000e-04 3.061617e-20 1.778766e-03) // 514
    (-4.592425e-20 -2.500000e-04 1.778766e-03) // 515
    (1.875000e-04 0.000000e+00 1.778766e-03) // 516
    (1.148106e-20 1.875000e-04 1.778766e-03) // 517
    (-1.875000e-04 2.296213e-20 1.778766e-03) // 518
    (-3.444319e-20 -1.875000e-04 1.778766e-03) // 519
    (2.500000e-04 0.000000e+00 1.806559e-03) // 520
    (1.530808e-20 2.500000e-04 1.806559e-03) // 521
    (-2.500000e-04 3.061617e-20 1.806559e-03) // 522
    (-4.592425e-20 -2.500000e-04 1.806559e-03) // 523
    (1.875000e-04 0.000000e+00 1.806559e-03) // 524
    (1.148106e-20 1.875000e-04 1.806559e-03) // 525
    (-1.875000e-04 2.296213e-20 1.806559e-03) // 526
    (-3.444319e-20 -1.875000e-04 1.806559e-03) // 527
    (2.500000e-04 0.000000e+00 1.834352e-03) // 528
    (1.530808e-20 2.500000e-04 1.834352e-03) // 529
    (-2.500000e-04 3.061617e-20 1.834352e-03) // 530
    (-4.592425e-20 -2.500000e-04 1.834352e-03) // 531
    (1.875000e-04 0.000000e+00 1.834352e-03) // 532
    (1.148106e-20 1.875000e-04 1.834352e-03) // 533
    (-1.875000e-04 2.296213e-20 1.834352e-03) // 534
    (-3.444319e-20 -1.875000e-04 1.834352e-03) // 535
    (2.500000e-04 0.000000e+00 1.862146e-03) // 536
    (1.530808e-20 2.500000e-04 1.862146e-03) // 537
    (-2.500000e-04 3.061617e-20 1.862146e-03) // 538
    (-4.592425e-20 -2.500000e-04 1.862146e-03) // 539
    (1.875000e-04 0.000000e+00 1.862146e-03) // 540
    (1.148106e-20 1.875000e-04 1.862146e-03) // 541
    (-1.875000e-04 2.296213e-20 1.862146e-03) // 542
    (-3.444319e-20 -1.875000e-04 1.862146e-03) // 543
    (2.500000e-04 0.000000e+00 1.889939e-03) // 544
    (1.530808e-20 2.500000e-04 1.889939e-03) // 545
    (-2.500000e-04 3.061617e-20 1.889939e-03) // 546
    (-4.592425e-20 -2.500000e-04 1.889939e-03) // 547
    (1.875000e-04 0.000000e+00 1.889939e-03) // 548
    (1.148106e-20 1.875000e-04 1.889939e-03) // 549
    (-1.875000e-04 2.296213e-20 1.889939e-03) // 550
    (-3.444319e-20 -1.875000e-04 1.889939e-03) // 551
    (2.500000e-04 0.000000e+00 1.917732e-03) // 552
    (1.530808e-20 2.500000e-04 1.917732e-03) // 553
    (-2.500000e-04 3.061617e-20 1.917732e-03) // 554
    (-4.592425e-20 -2.500000e-04 1.917732e-03) // 555