/*--------------------------------*- C++ -*----------------------------------*\\
| =========                 |                                                 |
| \\      /  F ield         | OpenFOAM: The Open Source CFD Toolbox           |
|  \\    /   O peration     | Version:  v2512                                 |
|   \\  /    A nd           | Website:  www.openfoam.com                      |
|    \\/     M anipulation  |                                                 |
\*---------------------------------------------------------------------------*/
FoamFile
{
    version     2.0;
    format      ascii;
    class       dictionary;
    object      blockMeshDict;
}
// * * * * * * * * * * * * * * * * * * * * * * * * * * * * * * * * * * * * * //

scale 1;

vertices
(
    (2.500000e-04 5.000000e-05 0.000000e+00) // 0
    (1.530808e-20 3.000000e-04 0.000000e+00) // 1
    (-2.500000e-04 5.000000e-05 0.000000e+00) // 2
    (-4.592425e-20 -2.000000e-04 0.000000e+00) // 3
    (1.750000e-04 5.000000e-05 0.000000e+00) // 4
    (1.071566e-20 2.250000e-04 0.000000e+00) // 5
    (-1.750000e-04 5.000000e-05 0.000000e+00) // 6
    (-3.214698e-20 -1.250000e-04 0.000000e+00) // 7
    (2.671926e-04 4.695119e-05 2.793296e-05) // 8
    (1.719260e-05 2.969512e-04 2.793296e-05) // 9
    (-2.328074e-04 4.695119e-05 2.793296e-05) // 10
    (1.719260e-05 -2.030488e-04 2.793296e-05) // 11
    (1.921926e-04 4.695119e-05 2.793296e-05) // 12
    (1.719260e-05 2.219512e-04 2.793296e-05) // 13
    (-1.578074e-04 4.695119e-05 2.793296e-05) // 14
    (1.719260e-05 -1.280488e-04 2.793296e-05) // 15
    (2.822885e-04 3.817658e-05 5.586592e-05) // 16
    (3.228852e-05 2.881766e-04 5.586592e-05) // 17
    (-2.177115e-04 3.817658e-05 5.586592e-05) // 18
    (3.228852e-05 -2.118234e-04 5.586592e-05) // 19
    (2.072885e-04 3.817658e-05 5.586592e-05) // 20
    (3.228852e-05 2.131766e-04 5.586592e-05) // 21
    (-1.427115e-04 3.817658e-05 5.586592e-05) // 22
    (3.228852e-05 -1.368234e-04 5.586592e-05) // 23
    (2.934468e-04 2.474625e-05 8.379888e-05) // 24
    (4.344678e-05 2.747462e-04 8.379888e-05) // 25
    (-2.065532e-04 2.474625e-05 8.379888e-05) // 26
    (4.344678e-05 -2.252538e-04 8.379888e-05) // 27
    (2.184468e-04 2.474625e-05 8.379888e-05) // 28
    (4.344678e-05 1.997462e-04 8.379888e-05) // 29
    (-1.315532e-04 2.474625e-05 8.379888e-05) // 30
    (4.344678e-05 -1.502538e-04 8.379888e-05) // 31
    (2.993066e-04 8.298056e-06 1.117318e-04) // 32
    (4.930661e-05 2.582981e-04 1.117318e-04) // 33
    (-2.006934e-04 8.298056e-06 1.117318e-04) // 34
    (4.930661e-05 -2.417019e-04 1.117318e-04) // 35
    (2.243066e-04 8.298056e-06 1.117318e-04) // 36
    (4.930661e-05 1.832981e-04 1.117318e-04) // 37
    (-1.256934e-04 8.298056e-06 1.117318e-04) // 38
    (4.930661e-05 -1.667019e-04 1.117318e-04) // 39
    (2.991534e-04 -9.162104e-06 1.396648e-04) // 40
    (4.915339e-05 2.408379e-04 1.396648e-04) // 41
    (-2.008466e-04 -9.162104e-06 1.396648e-04) // 42
    (4.915339e-05 -2.591621e-04 1.396648e-04) // 43
    (2.241534e-04 -9.162104e-06 1.396648e-04) // 44
    (4.915339e-05 1.658379e-04 1.396648e-04) // 45
    (-1.258466e-04 -9.162104e-06 1.396648e-04) // 46
    (4.915339e-05 -1.841621e-04 1.396648e-04) // 47
    (2.930058e-04 -2.550493e-05 1.675978e-04) // 48
    (4.300580e-05 2.244951e-04 1.675978e-04) // 49
    (-2.069942e-04 -2.550493e-05 1.675978e-04) // 50
    (4.300580e-05 -2.755049e-04 1.675978e-04) // 51
    (2.180058e-04 -2.550493e-05 1.675978e-04) // 52
    (4.300580e-05 1.494951e-04 1.675978e-04) // 53
    (-1.319942e-04 -2.550493e-05 1.675978e-04) // 54
    (4.300580e-05 -2.005049e-04 1.675978e-04) // 55
    (2.816136e-04 -3.873736e-05 1.955307e-04) // 56
    (3.161355e-05 2.112626e-04 1.955307e-04) // 57
    (-2.183864e-04 -3.873736e-05 1.955307e-04) // 58
    (3.161355e-05 -2.887374e-04 1.955307e-04) // 59
    (2.066136e-04 -3.873736e-05 1.955307e-04) // 60
    (3.161355e-05 1.362626e-04 1.955307e-04) // 61
    (-1.433864e-04 -3.873736e-05 1.955307e-04) // 62
    (3.161355e-05 -2.137374e-04 1.955307e-04) // 63
    (2.663660e-04 -4.724569e-05 2.234637e-04) // 64
    (1.636596e-05 2.027543e-04 2.234637e-04) // 65
    (-2.336340e-04 -4.724569e-05 2.234637e-04) // 66
    (1.636596e-05 -2.972457e-04 2.234637e-04) // 67
    (1.913660e-04 -4.724569e-05 2.234637e-04) // 68
    (1.636596e-05 1.277543e-04 2.234637e-04) // 69
    (-1.586340e-04 -4.724569e-05 2.234637e-04) // 70
    (1.636596e-05 -2.222457e-04 2.234637e-04) // 71
    (2.491225e-04 -4.999230e-05 2.513966e-04) // 72
    (-8.774948e-07 2.000077e-04 2.513966e-04) // 73
    (-2.508775e-04 -4.999230e-05 2.513966e-04) // 74
    (-8.774948e-07 -2.999923e-04 2.513966e-04) // 75
    (1.741225e-04 -4.999230e-05 2.513966e-04) // 76
    (-8.774948e-07 1.250077e-04 2.513966e-04) // 77
    (-1.758775e-04 -4.999230e-05 2.513966e-04) // 78
    (-8.774948e-07 -2.249923e-04 2.513966e-04) // 79
    (2.319861e-04 -4.664223e-05 2.793296e-04) // 80
    (-1.801394e-05 2.033578e-04 2.793296e-04) // 81
    (-2.680139e-04 -4.664223e-05 2.793296e-04) // 82
    (-1.801394e-05 -2.966422e-04 2.793296e-04) // 83
    (1.569861e-04 -4.664223e-05 2.793296e-04) // 84
    (-1.801394e-05 1.283578e-04 2.793296e-04) // 85
    (-1.930139e-04 -4.664223e-05 2.793296e-04) // 86
    (-1.801394e-05 -2.216422e-04 2.793296e-04) // 87
    (2.170465e-04 -3.760404e-05 3.072626e-04) // 88
    (-3.295354e-05 2.123960e-04 3.072626e-04) // 89
    (-2.829535e-04 -3.760404e-05 3.072626e-04) // 90
    (-3.295354e-05 -2.876040e-04 3.072626e-04) // 91
    (1.420465e-04 -3.760404e-05 3.072626e-04) // 92
    (-3.295354e-05 1.373960e-04 3.072626e-04) // 93
    (-2.079535e-04 -3.760404e-05 3.072626e-04) // 94
    (-3.295354e-05 -2.126040e-04 3.072626e-04) // 95
    (2.061256e-04 -2.397995e-05 3.351955e-04) // 96
    (-4.387439e-05 2.260200e-04 3.351955e-04) // 97
    (-2.938744e-04 -2.397995e-05 3.351955e-04) // 98
    (-4.387439e-05 -2.739800e-04 3.351955e-04) // 99
    (1.311256e-04 -2.397995e-05 3.351955e-04) // 100
    (-4.387439e-05 1.510200e-04 3.351955e-04) // 101
    (-2.188744e-04 -2.397995e-05 3.351955e-04) // 102
    (-4.387439e-05 -1.989800e-04 3.351955e-04) // 103
    (2.005553e-04 -7.431452e-06 3.631285e-04) // 104
    (-4.944465e-05 2.425685e-04 3.631285e-04) // 105
    (-2.994447e-04 -7.431452e-06 3.631285e-04) // 106
    (-4.944465e-05 -2.574315e-04 3.631285e-04) // 107
    (1.255553e-04 -7.431452e-06 3.631285e-04) // 108
    (-4.944465e-05 1.675685e-04 3.631285e-04) // 109
    (-2.244447e-04 -7.431452e-06 3.631285e-04) // 110
    (-4.944465e-05 -1.824315e-04 3.631285e-04) // 111
    (2.010150e-04 1.002333e-05 3.910615e-04) // 112
    (-4.898503e-05 2.600233e-04 3.910615e-04) // 113
    (-2.989850e-04 1.002333e-05 3.910615e-04) // 114
    (-4.898503e-05 -2.399767e-04 3.910615e-04) // 115
    (1.260150e-04 1.002333e-05 3.910615e-04) // 116
    (-4.898503e-05 1.850233e-04 3.910615e-04) // 117
    (-2.239850e-04 1.002333e-05 3.910615e-04) // 118
    (-4.898503e-05 -1.649767e-04 3.910615e-04) // 119
    (2.074484e-04 2.625574e-05 4.189944e-04) // 120
    (-4.255157e-05 2.762557e-04 4.189944e-04) // 121
    (-2.925516e-04 2.625574e-05 4.189944e-04) // 122
    (-4.255157e-05 -2.237443e-04 4.189944e-04) // 123
    (1.324484e-04 2.625574e-05 4.189944e-04) // 124
    (-4.255157e-05 2.012557e-04 4.189944e-04) // 125
    (-2.175516e-04 2.625574e-05 4.189944e-04) // 126
    (-4.255157e-05 -1.487443e-04 4.189944e-04) // 127
    (2.190712e-04 3.928621e-05 4.469274e-04) // 128
    (-3.092885e-05 2.892862e-04 4.469274e-04) // 129
    (-2.809288e-04 3.928621e-05 4.469274e-04) // 130
    (-3.092885e-05 -2.107138e-04 4.469274e-04) // 131
    (1.440712e-04 3.928621e-05 4.469274e-04) // 132
    (-3.092885e-05 2.142862e-04 4.469274e-04) // 133
    (-2.059288e-04 3.928621e-05 4.469274e-04) // 134
    (-3.092885e-05 -1.357138e-04 4.469274e-04) // 135
    (2.344657e-04 4.752564e-05 4.748603e-04) // 136
    (-1.553428e-05 2.975256e-04 4.748603e-04) // 137
    (-2.655343e-04 4.752564e-05 4.748603e-04) // 138
    (-1.553428e-05 -2.024744e-04 4.748603e-04) // 139
    (1.594657e-04 4.752564e-05 4.748603e-04) // 140
    (-1.553428e-05 2.225256e-04 4.748603e-04) // 141
    (-1.905343e-04 4.752564e-05 4.748603e-04) // 142
    (-1.553428e-05 -1.274744e-04 4.748603e-04) // 143
    (2.517547e-04 4.996920e-05 5.027933e-04) // 144
    (1.754719e-06 2.999692e-04 5.027933e-04) // 145
    (-2.482453e-04 4.996920e-05 5.027933e-04) // 146
    (1.754719e-06 -2.000308e-04 5.027933e-04) // 147
    (1.767547e-04 4.996920e-05 5.027933e-04) // 148
    (1.754719e-06 2.249692e-04 5.027933e-04) // 149
    (-1.732453e-04 4.996920e-05 5.027933e-04) // 150
    (1.754719e-06 -1.250308e-04 5.027933e-04) // 151
    (2.688297e-04 4.631891e-05 5.307263e-04) // 152
    (1.882973e-05 2.963189e-04 5.307263e-04) // 153
    (-2.311703e-04 4.631891e-05 5.307263e-04) // 154
    (1.882973e-05 -2.036811e-04 5.307263e-04) // 155
    (1.938297e-04 4.631891e-05 5.307263e-04) // 156
    (1.882973e-05 2.213189e-04 5.307263e-04) // 157
    (-1.561703e-04 4.631891e-05 5.307263e-04) // 158
    (1.882973e-05 -1.286811e-04 5.307263e-04) // 159
    (2.836084e-04 3.701992e-05 5.586592e-04) // 160
    (3.360842e-05 2.870199e-04 5.586592e-04) // 161
    (-2.163916e-04 3.701992e-05 5.586592e-04) // 162
    (3.360842e-05 -2.129801e-04 5.586592e-04) // 163
    (2.086084e-04 3.701992e-05 5.586592e-04) // 164
    (3.360842e-05 2.120199e-04 5.586592e-04) // 165
    (-1.413916e-04 3.701992e-05 5.586592e-04) // 166
    (3.360842e-05 -1.379801e-04 5.586592e-04) // 167
    (2.942885e-04 2.320627e-05 5.865922e-04) // 168
    (4.428848e-05 2.732063e-04 5.865922e-04) // 169
    (-2.057115e-04 2.320627e-05 5.865922e-04) // 170
    (4.428848e-05 -2.267937e-04 5.865922e-04) // 171
    (2.192885e-04 2.320627e-05 5.865922e-04) // 172
    (4.428848e-05 1.982063e-04 5.865922e-04) // 173
    (-1.307115e-04 2.320627e-05 5.865922e-04) // 174
    (4.428848e-05 -1.517937e-04 5.865922e-04) // 175
    (2.995675e-04 6.562559e-06 6.145251e-04) // 176
    (4.956746e-05 2.565626e-04 6.145251e-04) // 177
    (-2.004325e-04 6.562559e-06 6.145251e-04) // 178
    (4.956746e-05 -2.434374e-04 6.145251e-04) // 179
    (2.245675e-04 6.562559e-06 6.145251e-04) // 180
    (4.956746e-05 1.815626e-04 6.145251e-04) // 181
    (-1.254325e-04 6.562559e-06 6.145251e-04) // 182
    (4.956746e-05 -1.684374e-04 6.145251e-04) // 183
    (2.988016e-04 -1.088147e-05 6.424581e-04) // 184
    (4.880157e-05 2.391185e-04 6.424581e-04) // 185
    (-2.011984e-04 -1.088147e-05 6.424581e-04) // 186
    (4.880157e-05 -2.608815e-04 6.424581e-04) // 187
    (2.238016e-04 -1.088147e-05 6.424581e-04) // 188
    (4.880157e-05 1.641185e-04 6.424581e-04) // 189
    (-1.261984e-04 -1.088147e-05 6.424581e-04) // 190
    (4.880157e-05 -1.858815e-04 6.424581e-04) // 191
    (2.920842e-04 -2.699848e-05 6.703911e-04) // 192
    (4.208423e-05 2.230015e-04 6.703911e-04) // 193
    (-2.079158e-04 -2.699848e-05 6.703911e-04) // 194
    (4.208423e-05 -2.769985e-04 6.703911e-04) // 195
    (2.170842e-04 -2.699848e-05 6.703911e-04) // 196
    (4.208423e-05 1.480015e-04 6.703911e-04) // 197
    (-1.329158e-04 -2.699848e-05 6.703911e-04) // 198
    (4.208423e-05 -2.019985e-04 6.703911e-04) // 199
    (2.802346e-04 -3.982296e-05 6.983240e-04) // 200
    (3.023462e-05 2.101770e-04 6.983240e-04) // 201
    (-2.197654e-04 -3.982296e-05 6.983240e-04) // 202
    (3.023462e-05 -2.898230e-04 6.983240e-04) // 203
    (2.052346e-04 -3.982296e-05 6.983240e-04) // 204
    (3.023462e-05 1.351770e-04 6.983240e-04) // 205
    (-1.447654e-04 -3.982296e-05 6.983240e-04) // 206
    (3.023462e-05 -2.148230e-04 6.983240e-04) // 207
    (2.646978e-04 -4.779094e-05 7.262570e-04) // 208
    (1.469782e-05 2.022091e-04 7.262570e-04) // 209
    (-2.353022e-04 -4.779094e-05 7.262570e-04) // 210
    (1.469782e-05 -2.977909e-04 7.262570e-04) // 211
    (1.896978e-04 -4.779094e-05 7.262570e-04) // 212
    (1.469782e-05 1.272091e-04 7.262570e-04) // 213
    (-1.603022e-04 -4.779094e-05 7.262570e-04) // 214
    (1.469782e-05 -2.227909e-04 7.262570e-04) // 215
    (2.473686e-04 -4.993071e-05 7.541899e-04) // 216
    (-2.631403e-06 2.000693e-04 7.541899e-04) // 217
    (-2.526314e-04 -4.993071e-05 7.541899e-04) // 218
    (-2.631403e-06 -2.999307e-04 7.541899e-04) // 219
    (1.723686e-04 -4.993071e-05 7.541899e-04) // 220
    (-2.631403e-06 1.250693e-04 7.541899e-04) // 221
    (-1.776314e-04 -4.993071e-05 7.541899e-04) // 222
    (-2.631403e-06 -2.249307e-04 7.541899e-04) // 223
    (2.303603e-04 -4.598131e-05 7.821229e-04) // 224
    (-1.963972e-05 2.040187e-04 7.821229e-04) // 225
    (-2.696397e-04 -4.598131e-05 7.821229e-04) // 226
    (-1.963972e-05 -2.959813e-04 7.821229e-04) // 227
    (1.553603e-04 -4.598131e-05 7.821229e-04) // 228
    (-1.963972e-05 1.290187e-04 7.821229e-04) // 229
    (-1.946397e-04 -4.598131e-05 7.821229e-04) // 230
    (-1.963972e-05 -2.209813e-04 7.821229e-04) // 231
    (2.157471e-04 -3.642439e-05 8.100559e-04) // 232
    (-3.425293e-05 2.135756e-04 8.100559e-04) // 233
    (-2.842529e-04 -3.642439e-05 8.100559e-04) // 234
    (-3.425293e-05 -2.864244e-04 8.100559e-04) // 235
    (1.407471e-04 -3.642439e-05 8.100559e-04) // 236
    (-3.425293e-05 1.385756e-04 8.100559e-04) // 237
    (-2.092529e-04 -3.642439e-05 8.100559e-04) // 238
    (-3.425293e-05 -2.114244e-04 8.100559e-04) // 239
    (2.053111e-04 -2.242544e-05 8.379888e-04) // 240
    (-4.468892e-05 2.275746e-04 8.379888e-04) // 241
    (-2.946889e-04 -2.242544e-05 8.379888e-04) // 242
    (-4.468892e-05 -2.724254e-04 8.379888e-04) // 243
    (1.303111e-04 -2.242544e-05 8.379888e-04) // 244
    (-4.468892e-05 1.525746e-04 8.379888e-04) // 245
    (-2.196889e-04 -2.242544e-05 8.379888e-04) // 246
    (-4.468892e-05 -1.974254e-04 8.379888e-04) // 247
    (2.003250e-04 -5.691645e-06 8.659218e-04) // 248
    (-4.967500e-05 2.443084e-04 8.659218e-04) // 249
    (-2.996750e-04 -5.691645e-06 8.659218e-04) // 250
    (-4.967500e-05 -2.556916e-04 8.659218e-04) // 251
    (1.253250e-04 -5.691645e-06 8.659218e-04) // 252
    (-4.967500e-05 1.693084e-04 8.659218e-04) // 253
    (-2.246750e-04 -5.691645e-06 8.659218e-04) // 254
    (-4.967500e-05 -1.806916e-04 8.659218e-04) // 255
    (2.013969e-04 1.173626e-05 8.938547e-04) // 256
    (-4.860309e-05 2.617363e-04 8.938547e-04) // 257
    (-2.986031e-04 1.173626e-05 8.938547e-04) // 258
    (-4.860309e-05 -2.382637e-04 8.938547e-04) // 259
    (1.263969e-04 1.173626e-05 8.938547e-04) // 260
    (-4.860309e-05 1.867363e-04 8.938547e-04) // 261
    (-2.236031e-04 1.173626e-05 8.938547e-04) // 262
    (-4.860309e-05 -1.632637e-04 8.938547e-04) // 263
    (2.083961e-04 2.773289e-05 9.217877e-04) // 264
    (-4.160393e-05 2.777329e-04 9.217877e-04) // 265
    (-2.916039e-04 2.773289e-05 9.217877e-04) // 266
    (-4.160393e-05 -2.222671e-04 9.217877e-04) // 267
    (1.333961e-04 2.773289e-05 9.217877e-04) // 268
    (-4.160393e-05 2.027329e-04 9.217877e-04) // 269
    (-2.166039e-04 2.773289e-05 9.217877e-04) // 270
    (-4.160393e-05 -1.472671e-04 9.217877e-04) // 271
    (2.204689e-04 4.034744e-05 9.497207e-04) // 272
    (-2.953107e-05 2.903474e-04 9.497207e-04) // 273
    (-2.795311e-04 4.034744e-05 9.497207e-04) // 274
    (-2.953107e-05 -2.096526e-04 9.497207e-04) // 275
    (1.454689e-04 4.034744e-05 9.497207e-04) // 276
    (-2.953107e-05 2.153474e-04 9.497207e-04) // 277
    (-2.045311e-04 4.034744e-05 9.497207e-04) // 278
    (-2.953107e-05 -1.346526e-04 9.497207e-04) // 279
    (2.361432e-04 4.804153e-05 9.776536e-04) // 280
    (-1.385683e-05 2.980415e-04 9.776536e-04) // 281
    (-2.638568e-04 4.804153e-05 9.776536e-04) // 282
    (-1.385683e-05 -2.019585e-04 9.776536e-04) // 283
    (1.611432e-04 4.804153e-05 9.776536e-04) // 284
    (-1.385683e-05 2.230415e-04 9.776536e-04) // 285
    (-1.888568e-04 4.804153e-05 9.776536e-04) // 286
    (-1.385683e-05 -1.269585e-04 9.776536e-04) // 287
    (2.535073e-04 4.987684e-05 1.005587e-03) // 288
    (3.507277e-06 2.998768e-04 1.005587e-03) // 289
    (-2.464927e-04 4.987684e-05 1.005587e-03) // 290
    (3.507277e-06 -2.001232e-04 1.005587e-03) // 291
    (1.785073e-04 4.987684e-05 1.005587e-03) // 292
    (3.507277e-06 2.248768e-04 1.005587e-03) // 293
    (-1.714927e-04 4.987684e-05 1.005587e-03) // 294
    (3.507277e-06 -1.251232e-04 1.005587e-03) // 295
    (2.704437e-04 4.562956e-05 1.033520e-03) // 296
    (2.044367e-05 2.956296e-04 1.033520e-03) // 297
    (-2.295563e-04 4.562956e-05 1.033520e-03) // 298
    (2.044367e-05 -2.043704e-04 1.033520e-03) // 299
    (1.954437e-04 4.562956e-05 1.033520e-03) // 300
    (2.044367e-05 2.206296e-04 1.033520e-03) // 301
    (-1.545563e-04 4.562956e-05 1.033520e-03) // 302
    (2.044367e-05 -1.293704e-04 1.033520e-03) // 303
    (2.848869e-04 3.581765e-05 1.061453e-03) // 304
    (3.488690e-05 2.858176e-04 1.061453e-03) // 305
    (-2.151131e-04 3.581765e-05 1.061453e-03) // 306
    (3.488690e-05 -2.141824e-04 1.061453e-03) // 307
    (2.098869e-04 3.581765e-05 1.061453e-03) // 308
    (3.488690e-05 2.108176e-04 1.061453e-03) // 309
    (-1.401131e-04 3.581765e-05 1.061453e-03) // 310
    (3.488690e-05 -1.391824e-04 1.061453e-03) // 311
    (2.950756e-04 2.163770e-05 1.089385e-03) // 312
    (4.507560e-05 2.716377e-04 1.089385e-03) // 313
    (-2.049244e-04 2.163770e-05 1.089385e-03) // 314
    (4.507560e-05 -2.283623e-04 1.089385e-03) // 315
    (2.200756e-04 2.163770e-05 1.089385e-03) // 316
    (4.507560e-05 1.966377e-04 1.089385e-03) // 317
    (-1.299244e-04 2.163770e-05 1.089385e-03) // 318
    (4.507560e-05 -1.533623e-04 1.089385e-03) // 319
    (2.997672e-04 4.818977e-06 1.117318e-03) // 320
    (4.976723e-05 2.548190e-04 1.117318e-03) // 321
    (-2.002328e-04 4.818977e-06 1.117318e-03) // 322
    (4.976723e-05 -2.451810e-04 1.117318e-03) // 323
    (2.247672e-04 4.818977e-06 1.117318e-03) // 324
    (4.976723e-05 1.798190e-04 1.117318e-03) // 325
    (-1.252328e-04 4.818977e-06 1.117318e-03) // 326
    (4.976723e-05 -1.701810e-04 1.117318e-03) // 327
    (2.983896e-04 -1.258743e-05 1.145251e-03) // 328
    (4.838963e-05 2.374126e-04 1.145251e-03) // 329
    (-2.016104e-04 -1.258743e-05 1.145251e-03) // 330
    (4.838963e-05 -2.625874e-04 1.145251e-03) // 331
    (2.233896e-04 -1.258743e-05 1.145251e-03) // 332
    (4.838963e-05 1.624126e-04 1.145251e-03) // 333
    (-1.266104e-04 -1.258743e-05 1.145251e-03) // 334
    (4.838963e-05 -1.875874e-04 1.145251e-03) // 335
    (2.911108e-04 -2.845877e-05 1.173184e-03) // 336
    (4.111081e-05 2.215412e-04 1.173184e-03) // 337
    (-2.088892e-04 -2.845877e-05 1.173184e-03) // 338
    (4.111081e-05 -2.784588e-04 1.173184e-03) // 339
    (2.161108e-04 -2.845877e-05 1.173184e-03) // 340
    (4.111081e-05 1.465412e-04 1.173184e-03) // 341
    (-1.338892e-04 -2.845877e-05 1.173184e-03) // 342
    (4.111081e-05 -2.034588e-04 1.173184e-03) // 343
    (2.788184e-04 -4.085949e-05 1.201117e-03) // 344
    (2.881843e-05 2.091405e-04 1.201117e-03) // 345
    (-2.211816e-04 -4.085949e-05 1.201117e-03) // 346
    (2.881843e-05 -2.908595e-04 1.201117e-03) // 347
    (2.038184e-04 -4.085949e-05 1.201117e-03) // 348
    (2.881843e-05 1.341405e-04 1.201117e-03) // 349
    (-1.461816e-04 -4.085949e-05 1.201117e-03) // 350
    (2.881843e-05 -2.158595e-04 1.201117e-03) // 351
    (2.630116e-04 -4.827731e-05 1.229050e-03) // 352
    (1.301157e-05 2.017227e-04 1.229050e-03) // 353
    (-2.369884e-04 -4.827731e-05 1.229050e-03) // 354
    (1.301157e-05 -2.982773e-04 1.229050e-03) // 355
    (1.880116e-04 -4.827731e-05 1.229050e-03) // 356
    (1.301157e-05 1.267227e-04 1.229050e-03) // 357
    (-1.619884e-04 -4.827731e-05 1.229050e-03) // 358
    (1.301157e-05 -2.232773e-04 1.229050e-03) // 359
    (2.456179e-04 -4.980760e-05 1.256983e-03) // 360
    (-4.382070e-06 2.001924e-04 1.256983e-03) // 361
    (-2.543821e-04 -4.980760e-05 1.256983e-03) // 362
    (-4.382070e-06 -2.998076e-04 1.256983e-03) // 363
    (1.706179e-04 -4.980760e-05 1.256983e-03) // 364
    (-4.382070e-06 1.251924e-04 1.256983e-03) // 365
    (-1.793821e-04 -4.980760e-05 1.256983e-03) // 366
    (-4.382070e-06 -2.248076e-04 1.256983e-03) // 367
    (2.287587e-04 -4.526375e-05 1.284916e-03) // 368
    (-2.124131e-05 2.047363e-04 1.284916e-03) // 369
    (-2.712413e-04 -4.526375e-05 1.284916e-03) // 370
    (-2.124131e-05 -2.952637e-04 1.284916e-03) // 371
    (1.537587e-04 -4.526375e-05 1.284916e-03) // 372
    (-2.124131e-05 1.297363e-04 1.284916e-03) // 373
    (-1.962413e-04 -4.526375e-05 1.284916e-03) // 374
    (-2.124131e-05 -2.202637e-04 1.284916e-03) // 375
    (2.144899e-04 -3.519987e-05 1.312849e-03) // 376
    (-3.551013e-05 2.148001e-04 1.312849e-03) // 377
    (-2.855101e-04 -3.519987e-05 1.312849e-03) // 378
    (-3.551013e-05 -2.851999e-04 1.312849e-03) // 379
    (1.394899e-04 -3.519987e-05 1.312849e-03) // 380
    (-3.551013e-05 1.398001e-04 1.312849e-03) // 381
    (-2.105101e-04 -3.519987e-05 1.312849e-03) // 382
    (-3.551013e-05 -2.101999e-04 1.312849e-03) // 383
    (2.045516e-04 -2.084329e-05 1.340782e-03) // 384
    (-4.544840e-05 2.291567e-04 1.340782e-03) // 385
    (-2.954484e-04 -2.084329e-05 1.340782e-03) // 386
    (-4.544840e-05 -2.708433e-04 1.340782e-03) // 387
    (1.295516e-04 -2.084329e-05 1.340782e-03) // 388
    (-4.544840e-05 1.541567e-04 1.340782e-03) // 389
    (-2.204484e-04 -2.084329e-05 1.340782e-03) // 390
    (-4.544840e-05 -1.958433e-04 1.340782e-03) // 391
    (2.001559e-04 -3.944825e-06 1.368715e-03) // 392
    (-4.984414e-05 2.460552e-04 1.368715e-03) // 393
    (-2.998441e-04 -3.944825e-06 1.368715e-03) // 394
    (-4.984414e-05 -2.539448e-04 1.368715e-03) // 395
    (1.251559e-04 -3.944825e-06 1.368715e-03) // 396
    (-4.984414e-05 1.710552e-04 1.368715e-03) // 397
    (-2.248441e-04 -3.944825e-06 1.368715e-03) // 398
    (-4.984414e-05 -1.789448e-04 1.368715e-03) // 399
    (2.018387e-04 1.343472e-05 1.396648e-03) // 400
    (-4.816127e-05 2.634347e-04 1.396648e-03) // 401
    (-2.981613e-04 1.343472e-05 1.396648e-03) // 402
    (-4.816127e-05 -2.365653e-04 1.396648e-03) // 403
    (1.268387e-04 1.343472e-05 1.396648e-03) // 404
    (-4.816127e-05 1.884347e-04 1.396648e-03) // 405
    (-2.231613e-04 1.343472e-05 1.396648e-03) // 406
    (-4.816127e-05 -1.615653e-04 1.396648e-03) // 407
    (2.093950e-04 2.917587e-05 1.424581e-03) // 408
    (-4.060503e-05 2.791759e-04 1.424581e-03) // 409
    (-2.906050e-04 2.917587e-05 1.424581e-03) // 410
    (-4.060503e-05 -2.208241e-04 1.424581e-03) // 411
    (1.343950e-04 2.917587e-05 1.424581e-03) // 412
    (-4.060503e-05 2.041759e-04 1.424581e-03) // 413
    (-2.156050e-04 2.917587e-05 1.424581e-03) // 414
    (-4.060503e-05 -1.458241e-04 1.424581e-03) // 415
    (2.219031e-04 4.135896e-05 1.452514e-03) // 416
    (-2.809691e-05 2.913590e-04 1.452514e-03) // 417
    (-2.780969e-04 4.135896e-05 1.452514e-03) // 418
    (-2.809691e-05 -2.086410e-04 1.452514e-03) // 419
    (1.469031e-04 4.135896e-05 1.452514e-03) // 420
    (-2.809691e-05 2.163590e-04 1.452514e-03) // 421
    (-2.030969e-04 4.135896e-05 1.452514e-03) // 422
    (-2.809691e-05 -1.336410e-04 1.452514e-03) // 423
    (2.378377e-04 4.849823e-05 1.480447e-03) // 424
    (-1.216231e-05 2.984982e-04 1.480447e-03) // 425
    (-2.621623e-04 4.849823e-05 1.480447e-03) // 426
    (-1.216231e-05 -2.015018e-04 1.480447e-03) // 427
    (1.628377e-04 4.849823e-05 1.480447e-03) // 428
    (-1.216231e-05 2.234982e-04 1.480447e-03) // 429
    (-1.871623e-04 4.849823e-05 1.480447e-03) // 430
    (-1.216231e-05 -1.265018e-04 1.480447e-03) // 431
    (2.552555e-04 4.972303e-05 1.508380e-03) // 432
    (5.255513e-06 2.997230e-04 1.508380e-03) // 433
    (-2.447445e-04 4.972303e-05 1.508380e-03) // 434
    (5.255513e-06 -2.002770e-04 1.508380e-03) // 435
    (1.802555e-04 4.972303e-05 1.508380e-03) // 436
    (5.255513e-06 2.247230e-04 1.508380e-03) // 437
    (-1.697445e-04 4.972303e-05 1.508380e-03) // 438
    (5.255513e-06 -1.252770e-04 1.508380e-03) // 439
    (2.720324e-04 4.488399e-05 1.536313e-03) // 440
    (2.203241e-05 2.948840e-04 1.536313e-03) // 441
    (-2.279676e-04 4.488399e-05 1.536313e-03) // 442
    (2.203241e-05 -2.051160e-04 1.536313e-03) // 443
    (1.970324e-04 4.488399e-05 1.536313e-03) // 444
    (2.203241e-05 2.198840e-04 1.536313e-03) // 445
    (-1.529676e-04 4.488399e-05 1.536313e-03) // 446
    (2.203241e-05 -1.301160e-04 1.536313e-03) // 447
    (2.861224e-04 3.457125e-05 1.564246e-03) // 448
    (3.612241e-05 2.845713e-04 1.564246e-03) // 449
    (-2.138776e-04 3.457125e-05 1.564246e-03) // 450
    (3.612241e-05 -2.154287e-04 1.564246e-03) // 451
    (2.111224e-04 3.457125e-05 1.564246e-03) // 452
    (3.612241e-05 2.095713e-04 1.564246e-03) // 453
    (-1.388776e-04 3.457125e-05 1.564246e-03) // 454
    (3.612241e-05 -1.404287e-04 1.564246e-03) // 455
    (2.958072e-04 2.004247e-05 1.592179e-03) // 456
    (4.580720e-05 2.700425e-04 1.592179e-03) // 457
    (-2.041928e-04 2.004247e-05 1.592179e-03) // 458
    (4.580720e-05 -2.299575e-04 1.592179e-03) // 459
    (2.208072e-04 2.004247e-05 1.592179e-03) // 460
    (4.580720e-05 1.950425e-04 1.592179e-03) // 461
    (-1.291928e-04 2.004247e-05 1.592179e-03) // 462
    (4.580720e-05 -1.549575e-04 1.592179e-03) // 463
    (2.999057e-04 3.069458e-06 1.620112e-03) // 464
    (4.990570e-05 2.530695e-04 1.620112e-03) // 465
    (-2.000943e-04 3.069458e-06 1.620112e-03) // 466
    (4.990570e-05 -2.469305e-04 1.620112e-03) // 467
    (2.249057e-04 3.069458e-06 1.620112e-03) // 468
    (4.990570e-05 1.780695e-04 1.620112e-03) // 469
    (-1.250943e-04 3.069458e-06 1.620112e-03) // 470
    (4.990570e-05 -1.719305e-04 1.620112e-03) // 471
    (2.979181e-04 -1.427788e-05 1.648045e-03) // 472
    (4.791808e-05 2.357221e-04 1.648045e-03) // 473
    (-2.020819e-04 -1.427788e-05 1.648045e-03) // 474
    (4.791808e-05 -2.642779e-04 1.648045e-03) // 475
    (2.229181e-04 -1.427788e-05 1.648045e-03) // 476
    (4.791808e-05 1.607221e-04 1.648045e-03) // 477
    (-1.270819e-04 -1.427788e-05 1.648045e-03) // 478
    (4.791808e-05 -1.892779e-04 1.648045e-03) // 479
    (2.900867e-04 -2.988399e-05 1.675978e-03) // 480
    (4.008674e-05 2.201160e-04 1.675978e-03) // 481
    (-2.099133e-04 -2.988399e-05 1.675978e-03) // 482
    (4.008674e-05 -2.798840e-04 1.675978e-03) // 483
    (2.150867e-04 -2.988399e-05 1.675978e-03) // 484
    (4.008674e-05 1.451160e-04 1.675978e-03) // 485
    (-1.349133e-04 -2.988399e-05 1.675978e-03) // 486
    (4.008674e-05 -2.048840e-04 1.675978e-03) // 487
    (2.773667e-04 -4.184569e-05 1.703911e-03) // 488
    (2.736674e-05 2.081543e-04 1.703911e-03) // 489
    (-2.226333e-04 -4.184569e-05 1.703911e-03) // 490
    (2.736674e-05 -2.918457e-04 1.703911e-03) // 491
    (2.023667e-04 -4.184569e-05 1.703911e-03) // 492
    (2.736674e-05 1.331543e-04 1.703911e-03) // 493
    (-1.476333e-04 -4.184569e-05 1.703911e-03) // 494
    (2.736674e-05 -2.168457e-04 1.703911e-03) // 495
    (2.613093e-04 -4.870421e-05 1.731844e-03) // 496
    (1.130930e-05 2.012958e-04 1.731844e-03) // 497
    (-2.386907e-04 -4.870421e-05 1.731844e-03) // 498
    (1.130930e-05 -2.987042e-04 1.731844e-03) // 499
    (1.863093e-04 -4.870421e-05 1.731844e-03) // 500
    (1.130930e-05 1.262958e-04 1.731844e-03) // 501
    (-1.636907e-04 -4.870421e-05 1.731844e-03) // 502
    (1.130930e-05 -2.237042e-04 1.731844e-03) // 503
    (2.438727e-04 -4.962314e-05 1.759777e-03) // 504
    (-6.127338e-06 2.003769e-04 1.759777e-03) // 505
    (-2.561273e-04 -4.962314e-05 1.759777e-03) // 506
    (-6.127338e-06 -2.996231e-04 1.759777e-03) // 507
    (1.688727e-04 -4.962314e-05 1.759777e-03) // 508
    (-6.127338e-06 1.253769e-04 1.759777e-03) // 509
    (-1.811273e-04 -4.962314e-05 1.759777e-03) // 510
    (-6.127338e-06 -2.246231e-04 1.759777e-03) // 511
    (2.271833e-04 -4.449041e-05 1.787709e-03) // 512
    (-2.281673e-05 2.055096e-04 1.787709e-03) // 513
    (-2.728167e-04 -4.449041e-05 1.787709e-03) // 514
    (-2.281673e-05 -2.944904e-04 1.787709e-03) // 515
    (1.521833e-04 -4.449041e-05 1.787709e-03) // 516
    (-2.281673e-05 1.305096e-04 1.787709e-03) // 517
    (-1.978167e-04 -4.449041e-05 1.787709e-03) // 518
    (-2.281673e-05 -2.194904e-04 1.787709e-03) // 519
    (2.132764e-04 -3.393198e-05 1.815642e-03) // 520
    (-3.672357e-05 2.160680e-04 1.815642e-03) // 521
    (-2.867236e-04 -3.393198e-05 1.815642e-03) // 522
    (-3.672357e-05 -2.839320e-04 1.815642e-03) // 523
    (1.382764e-04 -3.393198e-05 1.815642e-03) // 524
    (-3.672357e-05 1.410680e-04 1.815642e-03) // 525
    (-2.117236e-04 -3.393198e-05 1.815642e-03) // 526
    (-3.672357e-05 -2.089320e-04 1.815642e-03) // 527
    (2.038481e-04 -1.923547e-05 1.843575e-03) // 528
    (-4.615189e-05 2.307645e-04 1.843575e-03) // 529
    (-2.961519e-04 -1.923547e-05 1.843575e-03) // 530
    (-4.615189e-05 -2.692355e-04 1.843575e-03) // 531
    (1.288481e-04 -1.923547e-05 1.843575e-03) // 532
    (-4.615189e-05 1.557645e-04 1.843575e-03) // 533
    (-2.211519e-04 -1.923547e-05 1.843575e-03) // 534
    (-4.615189e-05 -1.942355e-04 1.843575e-03) // 535
    (2.000481e-04 -2.193146e-06 1.871508e-03) // 536
    (-4.995188e-05 2.478069e-04 1.871508e-03) // 537
    (-2.999519e-04 -2.193146e-06 1.871508e-03) // 538
    (-4.995188e-05 -2.521931e-04 1.871508e-03) // 539
    (1.250481e-04 -2.193146e-06 1.871508e-03) // 540
    (-4.995188e-05 1.728069e-04 1.871508e-03) // 541
    (-2.249519e-04 -2.193146e-06 1.871508e-03) // 542
    (-4.995188e-05 -1.771931e-04 1.871508e-03) // 543
    (2.023399e-04 1.511664e-05 1.899441e-03) // 544
    (-4.766012e-05 2.651166e-04 1.899441e-03) // 545
    (-2.976601e-04 1.511664e-05 1.899441e-03) // 546
    (-4.766012e-05 -2.348834e-04 1.899441e-03) // 547
    (1.273399e-04 1.511664e-05 1.899441e-03) // 548
    (-4.766012e-05 1.901166e-04 1.899441e-03) // 549
    (-2.226601e-04 1.511664e-05 1.899441e-03) // 550
    (-4.766012e-05 -1.598834e-04 1.899441e-03) // 551
    (2.104439e-04 3.058291e-05 1.927374e-03) // 552