/*--------------------------------*- C++ -*----------------------------------*\\
| =========                 |                                                 |
| \\      /  F ield         | OpenFOAM: The Open Source CFD Toolbox           |
|  \\    /   O peration     | Version:  v2512                                 |
|   \\  /    A nd           | Website:  www.openfoam.com                      |
|    \\/     M anipulation  |                                                 |
\*---------------------------------------------------------------------------*/
FoamFile
{
    version     2.0;
    format      ascii;
    class       dictionary;
    object      blockMeshDict;
}
// * * * * * * * * * * * * * * * * * * * * * * * * * * * * * * * * * * * * * //

scale 1;

vertices
(
    (2.500000e-04 0.000000e+00 0.000000e+00) // 0
    (1.530808e-20 2.500000e-04 0.000000e+00) // 1
    (-2.500000e-04 3.061617e-20 0.000000e+00) // 2
    (-4.592425e-20 -2.500000e-04 0.000000e+00) // 3
    (1.875000e-04 0.000000e+00 0.000000e+00) // 4
    (1.148106e-20 1.875000e-04 0.000000e+00) // 5
    (-1.875000e-04 2.296213e-20 0.000000e+00) // 6
    (-3.444319e-20 -1.875000e-04 0.000000e+00) // 7
    (2.500000e-04 0.000000e+00 9.487666e-05) // 8
    (1.530808e-20 2.500000e-04 9.487666e-05) // 9
    (-2.500000e-04 3.061617e-20 9.487666e-05) // 10
    (-4.592425e-20 -2.500000e-04 9.487666e-05) // 11
    (1.875000e-04 0.000000e+00 9.487666e-05) // 12
    (1.148106e-20 1.875000e-04 9.487666e-05) // 13
    (-1.875000e-04 2.296213e-20 9.487666e-05) // 14
    (-3.444319e-20 -1.875000e-04 9.487666e-05) // 15
    (2.500000e-04 0.000000e+00 1.897533e-04) // 16
    (1.530808e-20 2.500000e-04 1.897533e-04) // 17
    (-2.500000e-04 3.061617e-20 1.897533e-04) // 18
    (-4.592425e-20 -2.500000e-04 1.897533e-04) // 19
    (1.875000e-04 0.000000e+00 1.897533e-04) // 20
    (1.148106e-20 1.875000e-04 1.897533e-04) // 21
    (-1.875000e-04 2.296213e-20 1.897533e-04) // 22
    (-3.444319e-20 -1.875000e-04 1.897533e-04) // 23
    (2.500000e-04 0.000000e+00 2.846300e-04) // 24
    (1.530808e-20 2.500000e-04 2.846300e-04) // 25
    (-2.500000e-04 3.061617e-20 2.846300e-04) // 26
    (-4.592425e-20 -2.500000e-04 2.846300e-04) // 27
    (1.875000e-04 0.000000e+00 2.846300e-04) // 28
    (1.148106e-20 1.875000e-04 2.846300e-04) // 29
    (-1.875000e-04 2.296213e-20 2.846300e-04) // 30
    (-3.444319e-20 -1.875000e-04 2.846300e-04) // 31
    (2.500000e-04 0.000000e+00 3.795066e-04) // 32
    (1.530808e-20 2.500000e-04 3.795066e-04) // 33
    (-2.500000e-04 3.061617e-20 3.795066e-04) // 34
    (-4.592425e-20 -2.500000e-04 3.795066e-04) // 35
    (1.875000e-04 0.000000e+00 3.795066e-04) // 36
    (1.148106e-20 1.875000e-04 3.795066e-04) // 37
    (-1.875000e-04 2.296213e-20 3.795066e-04) // 38
    (-3.444319e-20 -1.875000e-04 3.795066e-04) // 39
    (2.500000e-04 0.000000e+00 4.743833e-04) // 40
    (1.530808e-20 2.500000e-04 4.743833e-04) // 41
    (-2.500000e-04 3.061617e-20 4.743833e-04) // 42
    (-4.592425e-20 -2.500000e-04 4.743833e-04) // 43
    (1.875000e-04 0.000000e+00 4.743833e-04) // 44
    (1.148106e-20 1.875000e-04 4.743833e-04) // 45
    (-1.875000e-04 2.296213e-20 4.743833e-04) // 46
    (-3.444319e-20 -1.875000e-04 4.743833e-04) // 47
    (2.500000e-04 0.000000e+00 5.692600e-04) // 48
    (1.530808e-20 2.500000e-04 5.692600e-04) // 49
    (-2.500000e-04 3.061617e-20 5.692600e-04) // 50
    (-4.592425e-20 -2.500000e-04 5.692600e-04) // 51
    (1.875000e-04 0.000000e+00 5.692600e-04) // 52
    (1.148106e-20 1.875000e-04 5.692600e-04) // 53
    (-1.875000e-04 2.296213e-20 5.692600e-04) // 54
    (-3.444319e-20 -1.875000e-04 5.692600e-04) // 55
    (2.500000e-04 0.000000e+00 6.641366e-04) // 56
    (1.530808e-20 2.500000e-04 6.641366e-04) // 57
    (-2.500000e-04 3.061617e-20 6.641366e-04) // 58
    (-4.592425e-20 -2.500000e-04 6.641366e-04) // 59
    (1.875000e-04 0.000000e+00 6.641366e-04) // 60
    (1.148106e-20 1.875000e-04 6.641366e-04) // 61
    (-1.875000e-04 2.296213e-20 6.641366e-04) // 62
    (-3.444319e-20 -1.875000e-04 6.641366e-04) // 63
    (2.500000e-04 0.000000e+00 7.590133e-04) // 64
    (1.530808e-20 2.500000e-04 7.590133e-04) // 65
    (-2.500000e-04 3.061617e-20 7.590133e-04) // 66
    (-4.592425e-20 -2.500000e-04 7.590133e-04) // 67
    (1.875000e-04 0.000000e+00 7.590133e-04) // 68
    (1.148106e-20 1.875000e-04 7.590133e-04) // 69
    (-1.875000e-04 2.296213e-20 7.590133e-04) // 70
    (-3.444319e-20 -1.875000e-04 7.590133e-04) // 71
    (2.500000e-04 0.000000e+00 8.538899e-04) // 72
    (1.530808e-20 2.500000e-04 8.538899e-04) // 73
    (-2.500000e-04 3.061617e-20 8.538899e-04) // 74
    (-4.592425e-20 -2.500000e-04 8.538899e-04) // 75
    (1.875000e-04 0.000000e+00 8.538899e-04) // 76
    (1.148106e-20 1.875000e-04 8.538899e-04) // 77
    (-1.875000e-04 2.296213e-20 8.538899e-04) // 78
    (-3.444319e-20 -1.875000e-04 8.538899e-04) // 79
    (2.500000e-04 0.000000e+00 9.487666e-04) // 80
    (1.530808e-20 2.500000e-04 9.487666e-04) // 81
    (-2.500000e-04 3.061617e-20 9.487666e-04) // 82
    (-4.592425e-20 -2.500000e-04 9.487666e-04) // 83
    (1.875000e-04 0.000000e+00 9.487666e-04) // 84
    (1.148106e-20 1.875000e-04 9.487666e-04) // 85
    (-1.875000e-04 2.296213e-20 9.487666e-04) // 86
    (-3.444319e-20 -1.875000e-04 9.487666e-04) // 87
    (2.500000e-04 0.000000e+00 1.043643e-03) // 88
    (1.530808e-20 2.500000e-04 1.043643e-03) // 89
    (-2.500000e-04 3.061617e-20 1.043643e-03) // 90
    (-4.592425e-20 -2.500000e-04 1.043643e-03) // 91
    (1.875000e-04 0.000000e+00 1.043643e-03) // 92
    (1.148106e-20 1.875000e-04 1.043643e-03) // 93
    (-1.875000e-04 2.296213e-20 1.043643e-03) // 94
    (-3.444319e-20 -1.875000e-04 1.043643e-03) // 95
    (2.500000e-04 0.000000e+00 1.138520e-03) // 96
    (1.530808e-20 2.500000e-04 1.138520e-03) // 97
    (-2.500000e-04 3.061617e-20 1.138520e-03) // 98
    (-4.592425e-20 -2.500000e-04 1.138520e-03) // 99
    (1.875000e-04 0.000000e+00 1.138520e-03) // 100
    (1.148106e-20 1.875000e-04 1.138520e-03) // 101
    (-1.875000e-04 2.296213e-20 1.138520e-03) // 102
    (-3.444319e-20 -1.875000e-04 1.138520e-03) // 103
    (2.500000e-04 0.000000e+00 1.233397e-03) // 104
    (1.530808e-20 2.500000e-04 1.233397e-03) // 105
    (-2.500000e-04 3.061617e-20 1.233397e-03) // 106
    (-4.592425e-20 -2.500000e-04 1.233397e-03) // 107
    (1.875000e-04 0.000000e+00 1.233397e-03) // 108
    (1.148106e-20 1.875000e-04 1.233397e-03) // 109
    (-1.875000e-04 2.296213e-20 1.233397e-03) // 110
    (-3.444319e-20 -1.875000e-04 1.233397e-03) // 111
    (2.500000e-04 0.000000e+00 1.328273e-03) // 112
    (1.530808e-20 2.500000e-04 1.328273e-03) // 113
    (-2.500000e-04 3.061617e-20 1.328273e-03) // 114
    (-4.592425e-20 -2.500000e-04 1.328273e-03) // 115
    (1.875000e-04 0.000000e+00 1.328273e-03) // 116
    (1.148106e-20 1.875000e-04 1.328273e-03) // 117
    (-1.875000e-04 2.296213e-20 1.328273e-03) // 118
    (-3.444319e-20 -1.875000e-04 1.328273e-03) // 119
    (2.500000e-04 0.000000e+00 1.423150e-03) // 120
    (1.530808e-20 2.500000e-04 1.423150e-03) // 121
    (-2.500000e-04 3.061617e-20 1.423150e-03) // 122
    (-4.592425e-20 -2.500000e-04 1.423150e-03) // 123
    (1.875000e-04 0.000000e+00 1.423150e-03) // 124
    (1.148106e-20 1.875000e-04 1.423150e-03) // 125
    (-1.875000e-04 2.296213e-20 1.423150e-03) // 126
    (-3.444319e-20 -1.875000e-04 1.423150e-03) // 127
    (2.500000e-04 0.000000e+00 1.518027e-03) // 128
    (1.530808e-20 2.500000e-04 1.518027e-03) // 129
    (-2.500000e-04 3.061617e-20 1.518027e-03) // 130
    (-4.592425e-20 -2.500000e-04 1.518027e-03) // 131
    (1.875000e-04 0.000000e+00 1.518027e-03) // 132
    (1.148106e-20 1.875000e-04 1.518027e-03) // 133
    (-1.875000e-04 2.296213e-20 1.518027e-03) // 134
    (-3.444319e-20 -1.875000e-04 1.518027e-03) // 135
    (2.500000e-04 0.000000e+00 1.612903e-03) // 136
    (1.530808e-20 2.500000e-04 1.612903e-03) // 137
    (-2.500000e-04 3.061617e-20 1.612903e-03) // 138
    (-4.592425e-20 -2.500000e-04 1.612903e-03) // 139
    (1.875000e-04 0.000000e+00 1.612903e-03) // 140
    (1.148106e-20 1.875000e-04 1.612903e-03) // 141
    (-1.875000e-04 2.296213e-20 1.612903e-03) // 142
    (-3.444319e-20 -1.875000e-04 1.612903e-03) // 143
    (2.500000e-04 0.000000e+00 1.707780e-03) // 144
    (1.530808e-20 2.500000e-04 1.707780e-03) // 145
    (-2.500000e-04 3.061617e-20 1.707780e-03) // 146
    (-4.592425e-20 -2.500000e-04 1.707780e-03) // 147
    (1.875000e-04 0.000000e+00 1.707780e-03) // 148
    (1.148106e-20 1.875000e-04 1.707780e-03) // 149
    (-1.875000e-04 2.296213e-20 1.707780e-03) // 150
    (-3.444319e-20 -1.875000e-04 1.707780e-03) // 151
    (2.500000e-04 0.000000e+00 1.802657e-03) // 152
    (1.530808e-20 2.500000e-04 1.802657e-03) // 153
    (-2.500000e-04 3.061617e-20 1.802657e-03) // 154
    (-4.592425e-20 -2.500000e-04 1.802657e-03) // 155
    (1.875000e-04 0.000000e+00 1.802657e-03) // 156
    (1.148106e-20 1.875000e-04 1.802657e-03) // 157
    (-1.875000e-04 2.296213e-20 1.802657e-03) // 158
    (-3.444319e-20 -1.875000e-04 1.802657e-03) // 159
    (2.500000e-04 0.000000e+00 1.897533e-03) // 160
    (1.530808e-20 2.500000e-04 1.897533e-03) // 161
    (-2.500000e-04 3.061617e-20 1.897533e-03) // 162
    (-4.592425e-20 -2.500000e-04 1.897533e-03) // 163
    (1.875000e-04 0.000000e+00 1.897533e-03) // 164
    (1.148106e-20 1.875000e-04 1.897533e-03) // 165
    (-1.875000e-04 2.296213e-20 1.897533e-03) // 166
    (-3.444319e-20 -1.875000e-04 1.897533e-03) // 167
    (2.500000e-04 0.000000e+00 1.992410e-03) // 168
    (1.530808e-20 2.500000e-04 1.992410e-03) // 169
    (-2.500000e-04 3.061617e-20 1.992410e-03) // 170
    (-4.592425e-20 -2.500000e-04 1.992410e-03) // 171
    (1.875000e-04 0.000000e+00 1.992410e-03) // 172
    (1.148106e-20 1.875000e-04 1.992410e-03) // 173
    (-1.875000e-04 2.296213e-20 1.992410e-03) // 174
    (-3.444319e-20 -1.875000e-04 1.992410e-03) // 175
    (2.500000e-04 0.000000e+00 2.087287e-03) // 176
    (1.530808e-20 2.500000e-04 2.087287e-03) // 177
    (-2.500000e-04 3.061617e-20 2.087287e-03) // 178
    (-4.592425e-20 -2.500000e-04 2.087287e-03) // 179
    (1.875000e-04 0.000000e+00 2.087287e-03) // 180
    (1.148106e-20 1.875000e-04 2.087287e-03) // 181
    (-1.875000e-04 2.296213e-20 2.087287e-03) // 182
    (-3.444319e-20 -1.875000e-04 2.087287e-03) // 183
    (2.500000e-04 0.000000e+00 2.182163e-03) // 184
    (1.530808e-20 2.500000e-04 2.182163e-03) // 185
    (-2.500000e-04 3.061617e-20 2.182163e-03) // 186
    (-4.592425e-20 -2.500000e-04 2.182163e-03) // 187
    (1.875000e-04 0.000000e+00 2.182163e-03) // 188
    (1.148106e-20 1.875000e-04 2.182163e-03) // 189
    (-1.875000e-04 2.296213e-20 2.182163e-03) // 190
    (-3.444319e-20 -1.875000e-04 2.182163e-03) // 191
    (2.500000e-04 0.000000e+00 2.277040e-03) // 192
    (1.530808e-20 2.500000e-04 2.277040e-03) // 193
    (-2.500000e-04 3.061617e-20 2.277040e-03) // 194
    (-4.592425e-20 -2.500000e-04 2.277040e-03) // 195
    (1.875000e-04 0.000000e+00 2.277040e-03) // 196
    (1.148106e-20 1.875000e-04 2.277040e-03) // 197
    (-1.875000e-04 2.296213e-20 2.277040e-03) // 198
    (-3.444319e-20 -1.875000e-04 2.277040e-03) // 199
    (2.500000e-04 0.000000e+00 2.371917e-03) // 200
    (1.530808e-20 2.500000e-04 2.371917e-03) // 201
    (-2.500000e-04 3.061617e-20 2.371917e-03) // 202
    (-4.592425e-20 -2.500000e-04 2.371917e-03) // 203
    (1.875000e-04 0.000000e+00 2.371917e-03) // 204
    (1.148106e-20 1.875000e-04 2.371917e-03) // 205
    (-1.875000e-04 2.296213e-20 2.371917e-03) // 206
    (-3.444319e-20 -1.875000e-04 2.371917e-03) // 207
    (2.500000e-04 0.000000e+00 2.466793e-03) // 208
    (1.530808e-20 2.500000e-04 2.466793e-03) // 209
    (-2.500000e-04 3.061617e-20 2.466793e-03) // 210
    (-4.592425e-20 -2.500000e-04 2.466793e-03) // 211
    (1.875000e-04 0.000000e+00 2.466793e-03) // 212
    (1.148106e-20 1.875000e-04 2.466793e-03) // 213
    (-1.875000e-04 2.296213e-20 2.466793e-03) // 214
    (-3.444319e-20 -1.875000e-04 2.466793e-03) // 215
    (2.500000e-04 0.000000e+00 2.561670e-03) // 216
    (1.530808e-20 2.500000e-04 2.561670e-03) // 217
    (-2.500000e-04 3.061617e-20 2.561670e-03) // 218
    (-4.592425e-20 -2.500000e-04 2.561670e-03) // 219
    (1.875000e-04 0.000000e+00 2.561670e-03) // 220
    (1.148106e-20 1.875000e-04 2.561670e-03) // 221
    (-1.875000e-04 2.296213e-20 2.561670e-03) // 222
    (-3.444319e-20 -1.875000e-04 2.561670e-03) // 223
    (2.500000e-04 0.000000e+00 2.656546e-03) // 224
    (1.530808e-20 2.500000e-04 2.656546e-03) // 225
    (-2.500000e-04 3.061617e-20 2.656546e-03) // 226
    (-4.592425e-20 -2.500000e-04 2.656546e-03) // 227
    (1.875000e-04 0.000000e+00 2.656546e-03) // 228
    (1.148106e-20 1.875000e-04 2.656546e-03) // 229
    (-1.875000e-04 2.296213e-20 2.656546e-03) // 230
    (-3.444319e-20 -1.875000e-04 2.656546e-03) // 231
    (2.500000e-04 0.000000e+00 2.751423e-03) // 232
    (1.530808e-20 2.500000e-04 2.751423e-03) // 233
    (-2.500000e-04 3.061617e-20 2.751423e-03) // 234
    (-4.592425e-20 -2.500000e-04 2.751423e-03) // 235
    (1.875000e-04 0.000000e+00 2.751423e-03) // 236
    (1.148106e-20 1.875000e-04 2.751423e-03) // 237
    (-1.875000e-04 2.296213e-20 2.751423e-03) // 238
    (-3.444319e-20 -1.875000e-04 2.751423e-03) // 239
    (2.500000e-04 0.000000e+00 2.846300e-03) // 240
    (1.530808e-20 2.500000e-04 2.846300e-03) // 241
    (-2.500000e-04 3.061617e-20 2.846300e-03) // 242
    (-4.592425e-20 -2.500000e-04 2.846300e-03) // 243
    (1.875000e-04 0.000000e+00 2.846300e-03) // 244
    (1.148106e-20 1.875000e-04 2.846300e-03) // 245
    (-1.875000e-04 2.296213e-20 2.846300e-03) // 246
    (-3.444319e-20 -1.875000e-04 2.846300e-03) // 247
    (2.500000e-04 0.000000e+00 2.941176e-03) // 248
    (1.530808e-20 2.500000e-04 2.941176e-03) // 249
    (-2.500000e-04 3.061617e-20 2.941176e-03) // 250
    (-4.592425e-20 -2.500000e-04 2.941176e-03) // 251
    (1.875000e-04 0.000000e+00 2.941176e-03) // 252
    (1.148106e-20 1.875000e-04 2.941176e-03) // 253
    (-1.875000e-04 2.296213e-20 2.941176e-03) // 254
    (-3.444319e-20 -1.875000e-04 2.941176e-03) // 255
    (2.500000e-04 0.000000e+00 3.036053e-03) // 256
    (1.530808e-20 2.500000e-04 3.036053e-03) // 257
    (-2.500000e-04 3.061617e-20 3.036053e-03) // 258
    (-4.592425e-20 -2.500000e-04 3.036053e-03) // 259
    (1.875000e-04 0.000000e+00 3.036053e-03) // 260
    (1.148106e-20 1.875000e-04 3.036053e-03) // 261
    (-1.875000e-04 2.296213e-20 3.036053e-03) // 262
    (-3.444319e-20 -1.875000e-04 3.036053e-03) // 263
    (2.500000e-04 0.000000e+00 3.130930e-03) // 264
    (1.530808e-20 2.500000e-04 3.130930e-03) // 265
    (-2.500000e-04 3.061617e-20 3.130930e-03) // 266
    (-4.592425e-20 -2.500000e-04 3.130930e-03) // 267
    (1.875000e-04 0.000000e+00 3.130930e-03) // 268
    (1.148106e-20 1.875000e-04 3.130930e-03) // 269
    (-1.875000e-04 2.296213e-20 3.130930e-03) // 270
    (-3.444319e-20 -1.875000e-04 3.130930e-03) // 271
    (2.500000e-04 0.000000e+00 3.225806e-03) // 272
    (1.530808e-20 2.500000e-04 3.225806e-03) // 273
    (-2.500000e-04 3.061617e-20 3.225806e-03) // 274
    (-4.592425e-20 -2.500000e-04 3.225806e-03) // 275
    (1.875000e-04 0.000000e+00 3.225806e-03) // 276
    (1.148106e-20 1.875000e-04 3.225806e-03) // 277
    (-1.875000e-04 2.296213e-20 3.225806e-03) // 278
    (-3.444319e-20 -1.875000e-04 3.225806e-03) // 279
    (2.500000e-04 0.000000e+00 3.320683e-03) // 280
    (1.530808e-20 2.500000e-04 3.320683e-03) // 281
    (-2.500000e-04 3.061617e-20 3.320683e-03) // 282
    (-4.592425e-20 -2.500000e-04 3.320683e-03) // 283
    (1.875000e-04 0.000000e+00 3.320683e-03) // 284
    (1.148106e-20 1.875000e-04 3.320683e-03) // 285
    (-1.875000e-04 2.296213e-20 3.320683e-03) // 286
    (-3.444319e-20 -1.875000e-04 3.320683e-03) // 287
    (2.500000e-04 0.000000e+00 3.415560e-03) // 288
    (1.530808e-20 2.500000e-04 3.415560e-03) // 289
    (-2.500000e-04 3.061617e-20 3.415560e-03) // 290
    (-4.592425e-20 -2.500000e-04 3.415560e-03) // 291
    (1.875000e-04 0.000000e+00 3.415560e-03) // 292
    (1.148106e-20 1.875000e-04 3.415560e-03) // 293
    (-1.875000e-04 2.296213e-20 3.415560e-03) // 294
    (-3.444319e-20 -1.875000e-04 3.415560e-03) // 295
    (2.500000e-04 0.000000e+00 3.510436e-03) // 296
    (1.530808e-20 2.500000e-04 3.510436e-03) // 297
    (-2.500000e-04 3.061617e-20 3.510436e-03) // 298
    (-4.592425e-20 -2.500000e-04 3.510436e-03) // 299
    (1.875000e-04 0.000000e+00 3.510436e-03) // 300
    (1.148106e-20 1.875000e-04 3.510436e-03) // 301
    (-1.875000e-04 2.296213e-20 3.510436e-03) // 302
    (-3.444319e-20 -1.875000e-04 3.510436e-03) // 303
    (2.500000e-04 0.000000e+00 3.605313e-03) // 304
    (1.530808e-20 2.500000e-04 3.605313e-03) // 305
    (-2.500000e-04 3.061617e-20 3.605313e-03) // 306
    (-4.592425e-20 -2.500000e-04 3.605313e-03) // 307
    (1.875000e-04 0.000000e+00 3.605313e-03) // 308
    (1.148106e-20 1.875000e-04 3.605313e-03) // 309
    (-1.875000e-04 2.296213e-20 3.605313e-03) // 310
    (-3.444319e-20 -1.875000e-04 3.605313e-03) // 311
    (2.500000e-04 0.000000e+00 3.700190e-03) // 312
    (1.530808e-20 2.500000e-04 3.700190e-03) // 313
    (-2.500000e-04 3.061617e-20 3.700190e-03) // 314
    (-4.592425e-20 -2.500000e-04 3.700190e-03) // 315
    (1.875000e-04 0.000000e+00 3.700190e-03) // 316
    (1.148106e-20 1.875000e-04 3.700190e-03) // 317
    (-1.875000e-04 2.296213e-20 3.700190e-03) // 318
    (-3.444319e-20 -1.875000e-04 3.700190e-03) // 319
    (2.500000e-04 0.000000e+00 3.795066e-03) // 320
    (1.530808e-20 2.500000e-04 3.795066e-03) // 321
    (-2.500000e-04 3.061617e-20 3.795066e-03) // 322
    (-4.592425e-20 -2.500000e-04 3.795066e-03) // 323
    (1.875000e-04 0.000000e+00 3.795066e-03) // 324
    (1.148106e-20 1.875000e-04 3.795066e-03) // 325
    (-1.875000e-04 2.296213e-20 3.795066e-03) // 326
    (-3.444319e-20 -1.875000e-04 3.795066e-03) // 327
    (2.500000e-04 0.000000e+00 3.889943e-03) // 328
    (1.530808e-20 2.500000e-04 3.889943e-03) // 329
    (-2.500000e-04 3.061617e-20 3.889943e-03) // 330
    (-4.592425e-20 -2.500000e-04 3.889943e-03) // 331
    (1.875000e-04 0.000000e+00 3.889943e-03) // 332
    (1.148106e-20 1.875000e-04 3.889943e-03) // 333
    (-1.875000e-04 2.296213e-20 3.889943e-03) // 334
    (-3.444319e-20 -1.875000e-04 3.889943e-03) // 335
    (2.500000e-04 0.000000e+00 3.984820e-03) // 336
    (1.530808e-20 2.500000e-04 3.984820e-03) // 337
    (-2.500000e-04 3.061617e-20 3.984820e-03) // 338
    (-4.592425e-20 -2.500000e-04 3.984820e-03) // 339
    (1.875000e-04 0.000000e+00 3.984820e-03) // 340
    (1.148106e-20 1.875000e-04 3.984820e-03) // 341
    (-1.875000e-04 2.296213e-20 3.984820e-03) // 342
    (-3.444319e-20 -1.875000e-04 3.984820e-03) // 343
    (2.500000e-04 0.000000e+00 4.079696e-03) // 344
    (1.530808e-20 2.500000e-04 4.079696e-03) // 345
    (-2.500000e-04 3.061617e-20 4.079696e-03) // 346
    (-4.592425e-20 -2.500000e-04 4.079696e-03) // 347
    (1.875000e-04 0.000000e+00 4.079696e-03) // 348
    (1.148106e-20 1.875000e-04 4.079696e-03) // 349
    (-1.875000e-04 2.296213e-20 4.079696e-03) // 350
    (-3.444319e-20 -1.875000e-04 4.079696e-03) // 351
    (2.500000e-04 0.000000e+00 4.174573e-03) // 352
    (1.530808e-20 2.500000e-04 4.174573e-03) // 353
    (-2.500000e-04 3.061617e-20 4.174573e-03) // 354
    (-4.592425e-20 -2.500000e-04 4.174573e-03) // 355
    (1.875000e-04 0.000000e+00 4.174573e-03) // 356
    (1.148106e-20 1.875000e-04 4.174573e-03) // 357
    (-1.875000e-04 2.296213e-20 4.174573e-03) // 358
    (-3.444319e-20 -1.875000e-04 4.174573e-03) // 359
    (2.500000e-04 0.000000e+00 4.269450e-03) // 360
    (1.530808e-20 2.500000e-04 4.269450e-03) // 361
    (-2.500000e-04 3.061617e-20 4.269450e-03) // 362
    (-4.592425e-20 -2.500000e-04 4.269450e-03) // 363
    (1.875000e-04 0.000000e+00 4.269450e-03) // 364
    (1.148106e-20 1.875000e-04 4.269450e-03) // 365
    (-1.875000e-04 2.296213e-20 4.269450e-03) // 366
    (-3.444319e-20 -1.875000e-04 4.269450e-03) // 367
    (2.500000e-04 0.000000e+00 4.364326e-03) // 368
    (1.530808e-20 2.500000e-04 4.364326e-03) // 369
    (-2.500000e-04 3.061617e-20 4.364326e-03) // 370
    (-4.592425e-20 -2.500000e-04 4.364326e-03) // 371
    (1.875000e-04 0.000000e+00 4.364326e-03) // 372
    (1.148106e-20 1.875000e-04 4.364326e-03) // 373
    (-1.875000e-04 2.296213e-20 4.364326e-03) // 374
    (-3.444319e-20 -1.875000e-04 4.364326e-03) // 375
    (2.500000e-04 0.000000e+00 4.459203e-03) // 376
    (1.530808e-20 2.500000e-04 4.459203e-03) // 377
    (-2.500000e-04 3.061617e-20 4.459203e-03) // 378
    (-4.592425e-20 -2.500000e-04 4.459203e-03) // 379
    (1.875000e-04 0.000000e+00 4.459203e-03) // 380
    (1.148106e-20 1.875000e-04 4.459203e-03) // 381
    (-1.875000e-04 2.296213e-20 4.459203e-03) // 382
    (-3.444319e-20 -1.875000e-04 4.459203e-03) // 383
    (2.500000e-04 0.000000e+00 4.554080e-03) // 384
    (1.530808e-20 2.500000e-04 4.554080e-03) // 385
    (-2.500000e-04 3.061617e-20 4.554080e-03) // 386
    (-4.592425e-20 -2.500000e-04 4.554080e-03) // 387
    (1.875000e-04 0.000000e+00 4.554080e-03) // 388
    (1.148106e-20 1.875000e-04 4.554080e-03) // 389
    (-1.875000e-04 2.296213e-20 4.554080e-03) // 390
    (-3.444319e-20 -1.875000e-04 4.554080e-03) // 391
    (2.500000e-04 0.000000e+00 4.648956e-03) // 392
    (1.530808e-20 2.500000e-04 4.648956e-03) // 393
    (-2.500000e-04 3.061617e-20 4.648956e-03) // 394
    (-4.592425e-20 -2.500000e-04 4.648956e-03) // 395
    (1.875000e-04 0.000000e+00 4.648956e-03) // 396
    (1.148106e-20 1.875000e-04 4.648956e-03) // 397
    (-1.875000e-04 2.296213e-20 4.648956e-03) // 398
    (-3.444319e-20 -1.875000e-04 4.648956e-03) // 399
    (2.500000e-04 0.000000e+00 4.743833e-03) // 400
    (1.530808e-20 2.500000e-04 4.743833e-03) // 401
    (-2.500000e-04 3.061617e-20 4.743833e-03) // 402
    (-4.592425e-20 -2.500000e-04 4.743833e-03) // 403
    (1.875000e-04 0.000000e+00 4.743833e-03) // 404
    (1.148106e-20 1.875000e-04 4.743833e-03) // 405
    (-1.875000e-04 2.296213e-20 4.743833e-03) // 406
    (-3.444319e-20 -1.875000e-04 4.743833e-03) // 407
    (2.500000e-04 0.000000e+00 4.838710e-03) // 408
    (1.530808e-20 2.500000e-04 4.838710e-03) // 409
    (-2.500000e-04 3.061617e-20 4.838710e-03) // 410
    (-4.592425e-20 -2.500000e-04 4.838710e-03) // 411
    (1.875000e-04 0.000000e+00 4.838710e-03) // 412
    (1.148106e-20 1.875000e-04 4.838710e-03) // 413
    (-1.875000e-04 2.296213e-20 4.838710e-03) // 414
    (-3.444319e-20 -1.875000e-04 4.838710e-03) // 415
    (2.500000e-04 0.000000e+00 4.933586e-03) // 416
    (1.530808e-20 2.500000e-04 4.933586e-03) // 417
    (-2.500000e-04 3.061617e-20 4.933586e-03) // 418
    (-4.592425e-20 -2.500000e-04 4.933586e-03) // 419
    (1.875000e-04 0.000000e+00 4.933586e-03) // 420
    (1.148106e-20 1.875000e-04 4.933586e-03) // 421
    (-1.875000e-04 2.296213e-20 4.933586e-03) // 422
    (-3.444319e-20 -1.875000e-04 4.933586e-03) // 423
    (2.500000e-04 0.000000e+00 5.028463e-03) // 424
    (1.530808e-20 2.500000e-04 5.028463e-03) // 425
    (-2.500000e-04 3.061617e-20 5.028463e-03) // 426
    (-4.592425e-20 -2.500000e-04 5.028463e-03) // 427
    (1.875000e-04 0.000000e+00 5.028463e-03) // 428
    (1.148106e-20 1.875000e-04 5.028463e-03) // 429
    (-1.875000e-04 2.296213e-20 5.028463e-03) // 430
    (-3.444319e-20 -1.875000e-04 5.028463e-03) // 431
    (2.500000e-04 0.000000e+00 5.123340e-03) // 432
    (1.530808e-20 2.500000e-04 5.123340e-03) // 433
    (-2.500000e-04 3.061617e-20 5.123340e-03) // 434
    (-4.592425e-20 -2.500000e-04 5.123340e-03) // 435
    (1.875000e-04 0.000000e+00 5.123340e-03) // 436
    (1.148106e-20 1.875000e-04 5.123340e-03) // 437
    (-1.875000e-04 2.296213e-20 5.123340e-03) // 438
    (-3.444319e-20 -1.875000e-04 5.123340e-03) // 439
    (2.500000e-04 0.000000e+00 5.218216e-03) // 440
    (1.530808e-20 2.500000e-04 5.218216e-03) // 441
    (-2.500000e-04 3.061617e-20 5.218216e-03) // 442
    (-4.592425e-20 -2.500000e-04 5.218216e-03) // 443
    (1.875000e-04 0.000000e+00 5.218216e-03) // 444
    (1.148106e-20 1.875000e-04 5.218216e-03) // 445
    (-1.875000e-04 2.296213e-20 5.218216e-03) // 446
    (-3.444319e-20 -1.875000e-04 5.218216e-03) // 447
    (2.500000e-04 0.000000e+00 5.313093e-03) // 448
    (1.530808e-20 2.500000e-04 5.313093e-03) // 449
    (-2.500000e-04 3.061617e-20 5.313093e-03) // 450
    (-4.592425e-20 -2.500000e-04 5.313093e-03) // 451
    (1.875000e-04 0.000000e+00 5.313093e-03) // 452
    (1.148106e-20 1.875000e-04 5.313093e-03) // 453
    (-1.875000e-04 2.296213e-20 5.313093e-03) // 454
    (-3.444319e-20 -1.875000e-04 5.313093e-03) // 455
    (2.500000e-04 0.000000e+00 5.407970e-03) // 456
    (1.530808e-20 2.500000e-04 5.407970e-03) // 457
    (-2.500000e-04 3.061617e-20 5.407970e-03) // 458
    (-4.592425e-20 -2.500000e-04 5.407970e-03) // 459
    (1.875000e-04 0.000000e+00 5.407970e-03) // 460
    (1.148106e-20 1.875000e-04 5.407970e-03) // 461
    (-1.875000e-04 2.296213e-20 5.407970e-03) // 462
    (-3.444319e-20 -1.875000e-04 5.407970e-03) // 463
    (2.500000e-04 0.000000e+00 5.502846e-03) // 464
    (1.530808e-20 2.500000e-04 5.502846e-03) // 465
    (-2.500000e-04 3.061617e-20 5.502846e-03) // 466
    (-4.592425e-20 -2.500000e-04 5.502846e-03) // 467
    (1.875000e-04 0.000000e+00 5.502846e-03) // 468
    (1.148106e-20 1.875000e-04 5.502846e-03) // 469
    (-1.875000e-04 2.296213e-20 5.502846e-03) // 470
    (-3.444319e-20 -1.875000e-04 5.502846e-03) // 471
    (2.500000e-04 0.000000e+00 5.597723e-03) // 472
    (1.530808e-20 2.500000e-04 5.597723e-03) // 473
    (-2.500000e-04 3.061617e-20 5.597723e-03) // 474
    (-4.592425e-20 -2.500000e-04 5.597723e-03) // 475
    (1.875000e-04 0.000000e+00 5.597723e-03) // 476
    (1.148106e-20 1.875000e-04 5.597723e-03) // 477
    (-1.875000e-04 2.296213e-20 5.597723e-03) // 478
    (-3.444319e-20 -1.875000e-04 5.597723e-03) // 479
    (2.500000e-04 0.000000e+00 5.692600e-03) // 480
    (1.530808e-20 2.500000e-04 5.692600e-03) // 481
    (-2.500000e-04 3.061617e-20 5.692600e-03) // 482
    (-4.592425e-20 -2.500000e-04 5.692600e-03) // 483
    (1.875000e-04 0.000000e+00 5.692600e-03) // 484
    (1.148106e-20 1.875000e-04 5.692600e-03) // 485
    (-1.875000e-04 2.296213e-20 5.692600e-03) // 486
    (-3.444319e-20 -1.875000e-04 5.692600e-03) // 487
    (2.500000e-04 0.000000e+00 5.787476e-03) // 488
    (1.530808e-20 2.500000e-04 5.787476e-03) // 489
    (-2.500000e-04 3.061617e-20 5.787476e-03) // 490
    (-4.592425e-20 -2.500000e-04 5.787476e-03) // 491
    (1.875000e-04 0.000000e+00 5.787476e-03) // 492
    (1.148106e-20 1.875000e-04 5.787476e-03) // 493
    (-1.875000e-04 2.296213e-20 5.787476e-03) // 494
    (-3.444319e-20 -1.875000e-04 5.787476e-03) // 495
    (2.500000e-04 0.000000e+00 5.882353e-03) // 496
    (1.530808e-20 2.500000e-04 5.882353e-03) // 497
    (-2.500000e-04 3.061617e-20 5.882353e-03) // 498
    (-4.592425e-20 -2.500000e-04 5.882353e-03) // 499
    (1.875000e-04 0.000000e+00 5.882353e-03) // 500
    (1.148106e-20 1.875000e-04 5.882353e-03) // 501
    (-1.875000e-04 2.296213e-20 5.882353e-03) // 502
    (-3.444319e-20 -1.875000e-04 5.882353e-03) // 503
    (2.500000e-04 0.000000e+00 5.977230e-03) // 504
    (1.530808e-20 2.500000e-04 5.977230e-03) // 505
    (-2.500000e-04 3.061617e-20 5.977230e-03) // 506
    (-4.592425e-20 -2.500000e-04 5.977230e-03) // 507
    (1.875000e-04 0.000000e+00 5.977230e-03) // 508
    (1.148106e-20 1.875000e-04 5.977230e-03) // 509
    (-1.875000e-04 2.296213e-20 5.977230e-03) // 510
    (-3.444319e-20 -1.875000e-04 5.977230e-03) // 511
    (2.500000e-04 0.000000e+00 6.072106e-03) // 512
    (1.530808e-20 2.500000e-04 6.072106e-03) // 513
    (-2.500000e-04 3.061617e-20 6.072106e-03) // 514
    (-4.592425e-20 -2.500000e-04 6.072106e-03) // 515
    (1.875000e-04 0.000000e+00 6.072106e-03) // 516
    (1.148106e-20 1.875000e-04 6.072106e-03) // 517
    (-1.875000e-04 2.296213e-20 6.072106e-03) // 518
    (-3.444319e-20 -1.875000e-04 6.072106e-03) // 519
    (2.500000e-04 0.000000e+00 6.166983e-03) // 520
    (1.530808e-20 2.500000e-04 6.166983e-03) // 521
    (-2.500000e-04 3.061617e-20 6.166983e-03) // 522
    (-4.592425e-20 -2.500000e-04 6.166983e-03) // 523
    (1.875000e-04 0.000000e+00 6.166983e-03) // 524
    (1.148106e-20 1.875000e-04 6.166983e-03) // 525
    (-1.875000e-04 2.296213e-20 6.166983e-03) // 526
    (-3.444319e-20 -1.875000e-04 6.166983e-03) // 527
    (2.500000e-04 0.000000e+00 6.261860e-03) // 528
    (1.530808e-20 2.500000e-04 6.261860e-03) // 529
    (-2.500000e-04 3.061617e-20 6.261860e-03) // 530
    (-4.592425e-20 -2.500000e-04 6.261860e-03) // 531
    (1.875000e-04 0.000000e+00 6.261860e-03) // 532
    (1.148106e-20 1.875000e-04 6.261860e-03) // 533
    (-1.875000e-04 2.296213e-20 6.261860e-03) // 534
    (-3.444319e-20 -1.875000e-04 6.261860e-03) // 535
    (2.500000e-04 0.000000e+00 6.356736e-03) // 536
    (1.530808e-20 2.500000e-04 6.356736e-03) // 537
    (-2.500000e-04 3.061617e-20 6.356736e-03) // 538
    (-4.592425e-20 -2.500000e-04 6.356736e-03) // 539
    (1.875000e-04 0.000000e+00 6.356736e-03) // 540
    (1.148106e-20 1.875000e-04 6.356736e-03) // 541
    (-1.875000e-04 2.296213e-20 6.356736e-03) // 542
    (-3.444319e-20 -1.875000e-04 6.356736e-03) // 543
    (2.500000e-04 0.000000e+00 6.451613e-03) // 544
    (1.530808e-20 2.500000e-04 6.451613e-03) // 545
    (-2.500000e-04 3.061617e-20 6.451613e-03) // 546
    (-4.592425e-20 -2.500000e-04 6.451613e-03) // 547
    (1.875000e-04 0.000000e+00 6.451613e-03) // 548
    (1.148106e-20 1.875000e-04 6.451613e-03) // 549
    (-1.875000e-04 2.296213e-20 6.451613e-03) // 550
    (-3.444319e-20 -1.875000e-04 6.451613e-03) // 551
    (2.500000e-04 0.000000e+00 6.546490e-03) // 552
    (1.530808e-20 2.500000e-04 6.546490e-03) // 553
    (-2.500000e-04 3.061617e-20 6.546490e-03) // 554
    (-4.592425e-20 -2.500000e-04 6.546490e-03) // 555