/*--------------------------------*- C++ -*----------------------------------*\\
| =========                 |                                                 |
| \\      /  F ield         | OpenFOAM: The Open Source CFD Toolbox           |
|  \\    /   O peration     | Version:  v2512                                 |
|   \\  /    A nd           | Website:  www.openfoam.com                      |
|    \\/     M anipulation  |                                                 |
\*---------------------------------------------------------------------------*/
FoamFile
{
    version     2.0;
    format      ascii;
    class       dictionary;
    object      blockMeshDict;
}
// * * * * * * * * * * * * * * * * * * * * * * * * * * * * * * * * * * * * * //

scale 1;

vertices
(
    (2.500000e-04 0.000000e+00 0.000000e+00) // 0
    (1.530808e-20 2.500000e-04 0.000000e+00) // 1
    (-2.500000e-04 3.061617e-20 0.000000e+00) // 2
    (-4.592425e-20 -2.500000e-04 0.000000e+00) // 3
<<<<<<< HEAD
    (2.000000e-04 0.000000e+00 0.000000e+00) // 4
    (1.224647e-20 2.000000e-04 0.000000e+00) // 5
    (-2.000000e-04 2.449294e-20 0.000000e+00) // 6
    (-3.673940e-20 -2.000000e-04 0.000000e+00) // 7
    (2.500000e-04 0.000000e+00 2.816901e-03) // 8
    (1.530808e-20 2.500000e-04 2.816901e-03) // 9
    (-2.500000e-04 3.061617e-20 2.816901e-03) // 10
    (-4.592425e-20 -2.500000e-04 2.816901e-03) // 11
    (2.000000e-04 0.000000e+00 2.816901e-03) // 12
    (1.224647e-20 2.000000e-04 2.816901e-03) // 13
    (-2.000000e-04 2.449294e-20 2.816901e-03) // 14
    (-3.673940e-20 -2.000000e-04 2.816901e-03) // 15
    (2.500000e-04 0.000000e+00 5.633803e-03) // 16
    (1.530808e-20 2.500000e-04 5.633803e-03) // 17
    (-2.500000e-04 3.061617e-20 5.633803e-03) // 18
    (-4.592425e-20 -2.500000e-04 5.633803e-03) // 19
    (2.000000e-04 0.000000e+00 5.633803e-03) // 20
    (1.224647e-20 2.000000e-04 5.633803e-03) // 21
    (-2.000000e-04 2.449294e-20 5.633803e-03) // 22
    (-3.673940e-20 -2.000000e-04 5.633803e-03) // 23
    (2.500000e-04 0.000000e+00 8.450704e-03) // 24
    (1.530808e-20 2.500000e-04 8.450704e-03) // 25
    (-2.500000e-04 3.061617e-20 8.450704e-03) // 26
    (-4.592425e-20 -2.500000e-04 8.450704e-03) // 27
    (2.000000e-04 0.000000e+00 8.450704e-03) // 28
    (1.224647e-20 2.000000e-04 8.450704e-03) // 29
    (-2.000000e-04 2.449294e-20 8.450704e-03) // 30
    (-3.673940e-20 -2.000000e-04 8.450704e-03) // 31
    (2.500000e-04 0.000000e+00 1.126761e-02) // 32
    (1.530808e-20 2.500000e-04 1.126761e-02) // 33
    (-2.500000e-04 3.061617e-20 1.126761e-02) // 34
    (-4.592425e-20 -2.500000e-04 1.126761e-02) // 35
    (2.000000e-04 0.000000e+00 1.126761e-02) // 36
    (1.224647e-20 2.000000e-04 1.126761e-02) // 37
    (-2.000000e-04 2.449294e-20 1.126761e-02) // 38
    (-3.673940e-20 -2.000000e-04 1.126761e-02) // 39
    (2.500000e-04 0.000000e+00 1.408451e-02) // 40
    (1.530808e-20 2.500000e-04 1.408451e-02) // 41
    (-2.500000e-04 3.061617e-20 1.408451e-02) // 42
    (-4.592425e-20 -2.500000e-04 1.408451e-02) // 43
    (2.000000e-04 0.000000e+00 1.408451e-02) // 44
    (1.224647e-20 2.000000e-04 1.408451e-02) // 45
    (-2.000000e-04 2.449294e-20 1.408451e-02) // 46
    (-3.673940e-20 -2.000000e-04 1.408451e-02) // 47
    (2.500000e-04 0.000000e+00 1.690141e-02) // 48
    (1.530808e-20 2.500000e-04 1.690141e-02) // 49
    (-2.500000e-04 3.061617e-20 1.690141e-02) // 50
    (-4.592425e-20 -2.500000e-04 1.690141e-02) // 51
    (2.000000e-04 0.000000e+00 1.690141e-02) // 52
    (1.224647e-20 2.000000e-04 1.690141e-02) // 53
    (-2.000000e-04 2.449294e-20 1.690141e-02) // 54
    (-3.673940e-20 -2.000000e-04 1.690141e-02) // 55
    (2.500000e-04 0.000000e+00 1.971831e-02) // 56
    (1.530808e-20 2.500000e-04 1.971831e-02) // 57
    (-2.500000e-04 3.061617e-20 1.971831e-02) // 58
    (-4.592425e-20 -2.500000e-04 1.971831e-02) // 59
    (2.000000e-04 0.000000e+00 1.971831e-02) // 60
    (1.224647e-20 2.000000e-04 1.971831e-02) // 61
    (-2.000000e-04 2.449294e-20 1.971831e-02) // 62
    (-3.673940e-20 -2.000000e-04 1.971831e-02) // 63
    (2.500000e-04 0.000000e+00 2.253521e-02) // 64
    (1.530808e-20 2.500000e-04 2.253521e-02) // 65
    (-2.500000e-04 3.061617e-20 2.253521e-02) // 66
    (-4.592425e-20 -2.500000e-04 2.253521e-02) // 67
    (2.000000e-04 0.000000e+00 2.253521e-02) // 68
    (1.224647e-20 2.000000e-04 2.253521e-02) // 69
    (-2.000000e-04 2.449294e-20 2.253521e-02) // 70
    (-3.673940e-20 -2.000000e-04 2.253521e-02) // 71
    (2.500000e-04 0.000000e+00 2.535211e-02) // 72
    (1.530808e-20 2.500000e-04 2.535211e-02) // 73
    (-2.500000e-04 3.061617e-20 2.535211e-02) // 74
    (-4.592425e-20 -2.500000e-04 2.535211e-02) // 75
    (2.000000e-04 0.000000e+00 2.535211e-02) // 76
    (1.224647e-20 2.000000e-04 2.535211e-02) // 77
    (-2.000000e-04 2.449294e-20 2.535211e-02) // 78
    (-3.673940e-20 -2.000000e-04 2.535211e-02) // 79
    (2.500000e-04 0.000000e+00 2.816901e-02) // 80
    (1.530808e-20 2.500000e-04 2.816901e-02) // 81
    (-2.500000e-04 3.061617e-20 2.816901e-02) // 82
    (-4.592425e-20 -2.500000e-04 2.816901e-02) // 83
    (2.000000e-04 0.000000e+00 2.816901e-02) // 84
    (1.224647e-20 2.000000e-04 2.816901e-02) // 85
    (-2.000000e-04 2.449294e-20 2.816901e-02) // 86
    (-3.673940e-20 -2.000000e-04 2.816901e-02) // 87
    (2.500000e-04 0.000000e+00 3.098592e-02) // 88
    (1.530808e-20 2.500000e-04 3.098592e-02) // 89
    (-2.500000e-04 3.061617e-20 3.098592e-02) // 90
    (-4.592425e-20 -2.500000e-04 3.098592e-02) // 91
    (2.000000e-04 0.000000e+00 3.098592e-02) // 92
    (1.224647e-20 2.000000e-04 3.098592e-02) // 93
    (-2.000000e-04 2.449294e-20 3.098592e-02) // 94
    (-3.673940e-20 -2.000000e-04 3.098592e-02) // 95
    (2.500000e-04 0.000000e+00 3.380282e-02) // 96
    (1.530808e-20 2.500000e-04 3.380282e-02) // 97
    (-2.500000e-04 3.061617e-20 3.380282e-02) // 98
    (-4.592425e-20 -2.500000e-04 3.380282e-02) // 99
    (2.000000e-04 0.000000e+00 3.380282e-02) // 100
    (1.224647e-20 2.000000e-04 3.380282e-02) // 101
    (-2.000000e-04 2.449294e-20 3.380282e-02) // 102
    (-3.673940e-20 -2.000000e-04 3.380282e-02) // 103
    (2.500000e-04 0.000000e+00 3.661972e-02) // 104
    (1.530808e-20 2.500000e-04 3.661972e-02) // 105
    (-2.500000e-04 3.061617e-20 3.661972e-02) // 106
    (-4.592425e-20 -2.500000e-04 3.661972e-02) // 107
    (2.000000e-04 0.000000e+00 3.661972e-02) // 108
    (1.224647e-20 2.000000e-04 3.661972e-02) // 109
    (-2.000000e-04 2.449294e-20 3.661972e-02) // 110
    (-3.673940e-20 -2.000000e-04 3.661972e-02) // 111
    (2.500000e-04 0.000000e+00 3.943662e-02) // 112
    (1.530808e-20 2.500000e-04 3.943662e-02) // 113
    (-2.500000e-04 3.061617e-20 3.943662e-02) // 114
    (-4.592425e-20 -2.500000e-04 3.943662e-02) // 115
    (2.000000e-04 0.000000e+00 3.943662e-02) // 116
    (1.224647e-20 2.000000e-04 3.943662e-02) // 117
    (-2.000000e-04 2.449294e-20 3.943662e-02) // 118
    (-3.673940e-20 -2.000000e-04 3.943662e-02) // 119
    (2.500000e-04 0.000000e+00 4.225352e-02) // 120
    (1.530808e-20 2.500000e-04 4.225352e-02) // 121
    (-2.500000e-04 3.061617e-20 4.225352e-02) // 122
    (-4.592425e-20 -2.500000e-04 4.225352e-02) // 123
    (2.000000e-04 0.000000e+00 4.225352e-02) // 124
    (1.224647e-20 2.000000e-04 4.225352e-02) // 125
    (-2.000000e-04 2.449294e-20 4.225352e-02) // 126
    (-3.673940e-20 -2.000000e-04 4.225352e-02) // 127
    (2.500000e-04 0.000000e+00 4.507042e-02) // 128
    (1.530808e-20 2.500000e-04 4.507042e-02) // 129
    (-2.500000e-04 3.061617e-20 4.507042e-02) // 130
    (-4.592425e-20 -2.500000e-04 4.507042e-02) // 131
    (2.000000e-04 0.000000e+00 4.507042e-02) // 132
    (1.224647e-20 2.000000e-04 4.507042e-02) // 133
    (-2.000000e-04 2.449294e-20 4.507042e-02) // 134
    (-3.673940e-20 -2.000000e-04 4.507042e-02) // 135
    (2.500000e-04 0.000000e+00 4.788732e-02) // 136
    (1.530808e-20 2.500000e-04 4.788732e-02) // 137
    (-2.500000e-04 3.061617e-20 4.788732e-02) // 138
    (-4.592425e-20 -2.500000e-04 4.788732e-02) // 139
    (2.000000e-04 0.000000e+00 4.788732e-02) // 140
    (1.224647e-20 2.000000e-04 4.788732e-02) // 141
    (-2.000000e-04 2.449294e-20 4.788732e-02) // 142
    (-3.673940e-20 -2.000000e-04 4.788732e-02) // 143
    (2.500000e-04 0.000000e+00 5.070423e-02) // 144
    (1.530808e-20 2.500000e-04 5.070423e-02) // 145
    (-2.500000e-04 3.061617e-20 5.070423e-02) // 146
    (-4.592425e-20 -2.500000e-04 5.070423e-02) // 147
    (2.000000e-04 0.000000e+00 5.070423e-02) // 148
    (1.224647e-20 2.000000e-04 5.070423e-02) // 149
    (-2.000000e-04 2.449294e-20 5.070423e-02) // 150
    (-3.673940e-20 -2.000000e-04 5.070423e-02) // 151
    (2.500000e-04 0.000000e+00 5.352113e-02) // 152
    (1.530808e-20 2.500000e-04 5.352113e-02) // 153
    (-2.500000e-04 3.061617e-20 5.352113e-02) // 154
    (-4.592425e-20 -2.500000e-04 5.352113e-02) // 155
    (2.000000e-04 0.000000e+00 5.352113e-02) // 156
    (1.224647e-20 2.000000e-04 5.352113e-02) // 157
    (-2.000000e-04 2.449294e-20 5.352113e-02) // 158
    (-3.673940e-20 -2.000000e-04 5.352113e-02) // 159
    (2.500000e-04 0.000000e+00 5.633803e-02) // 160
    (1.530808e-20 2.500000e-04 5.633803e-02) // 161
    (-2.500000e-04 3.061617e-20 5.633803e-02) // 162
    (-4.592425e-20 -2.500000e-04 5.633803e-02) // 163
    (2.000000e-04 0.000000e+00 5.633803e-02) // 164
    (1.224647e-20 2.000000e-04 5.633803e-02) // 165
    (-2.000000e-04 2.449294e-20 5.633803e-02) // 166
    (-3.673940e-20 -2.000000e-04 5.633803e-02) // 167
    (2.500000e-04 0.000000e+00 5.915493e-02) // 168
    (1.530808e-20 2.500000e-04 5.915493e-02) // 169
    (-2.500000e-04 3.061617e-20 5.915493e-02) // 170
    (-4.592425e-20 -2.500000e-04 5.915493e-02) // 171
    (2.000000e-04 0.000000e+00 5.915493e-02) // 172
    (1.224647e-20 2.000000e-04 5.915493e-02) // 173
    (-2.000000e-04 2.449294e-20 5.915493e-02) // 174
    (-3.673940e-20 -2.000000e-04 5.915493e-02) // 175
    (2.500000e-04 0.000000e+00 6.197183e-02) // 176
    (1.530808e-20 2.500000e-04 6.197183e-02) // 177
    (-2.500000e-04 3.061617e-20 6.197183e-02) // 178
    (-4.592425e-20 -2.500000e-04 6.197183e-02) // 179
    (2.000000e-04 0.000000e+00 6.197183e-02) // 180
    (1.224647e-20 2.000000e-04 6.197183e-02) // 181
    (-2.000000e-04 2.449294e-20 6.197183e-02) // 182
    (-3.673940e-20 -2.000000e-04 6.197183e-02) // 183
    (2.500000e-04 0.000000e+00 6.478873e-02) // 184
    (1.530808e-20 2.500000e-04 6.478873e-02) // 185
    (-2.500000e-04 3.061617e-20 6.478873e-02) // 186
    (-4.592425e-20 -2.500000e-04 6.478873e-02) // 187
    (2.000000e-04 0.000000e+00 6.478873e-02) // 188
    (1.224647e-20 2.000000e-04 6.478873e-02) // 189
    (-2.000000e-04 2.449294e-20 6.478873e-02) // 190
    (-3.673940e-20 -2.000000e-04 6.478873e-02) // 191
    (2.500000e-04 0.000000e+00 6.760563e-02) // 192
    (1.530808e-20 2.500000e-04 6.760563e-02) // 193
    (-2.500000e-04 3.061617e-20 6.760563e-02) // 194
    (-4.592425e-20 -2.500000e-04 6.760563e-02) // 195
    (2.000000e-04 0.000000e+00 6.760563e-02) // 196
    (1.224647e-20 2.000000e-04 6.760563e-02) // 197
    (-2.000000e-04 2.449294e-20 6.760563e-02) // 198
    (-3.673940e-20 -2.000000e-04 6.760563e-02) // 199
    (2.500000e-04 0.000000e+00 7.042254e-02) // 200
    (1.530808e-20 2.500000e-04 7.042254e-02) // 201
    (-2.500000e-04 3.061617e-20 7.042254e-02) // 202
    (-4.592425e-20 -2.500000e-04 7.042254e-02) // 203
    (2.000000e-04 0.000000e+00 7.042254e-02) // 204
    (1.224647e-20 2.000000e-04 7.042254e-02) // 205
    (-2.000000e-04 2.449294e-20 7.042254e-02) // 206
    (-3.673940e-20 -2.000000e-04 7.042254e-02) // 207
    (2.500000e-04 0.000000e+00 7.323944e-02) // 208
    (1.530808e-20 2.500000e-04 7.323944e-02) // 209
    (-2.500000e-04 3.061617e-20 7.323944e-02) // 210
    (-4.592425e-20 -2.500000e-04 7.323944e-02) // 211
    (2.000000e-04 0.000000e+00 7.323944e-02) // 212
    (1.224647e-20 2.000000e-04 7.323944e-02) // 213
    (-2.000000e-04 2.449294e-20 7.323944e-02) // 214
    (-3.673940e-20 -2.000000e-04 7.323944e-02) // 215
    (2.500000e-04 0.000000e+00 7.605634e-02) // 216
    (1.530808e-20 2.500000e-04 7.605634e-02) // 217
    (-2.500000e-04 3.061617e-20 7.605634e-02) // 218
    (-4.592425e-20 -2.500000e-04 7.605634e-02) // 219
    (2.000000e-04 0.000000e+00 7.605634e-02) // 220
    (1.224647e-20 2.000000e-04 7.605634e-02) // 221
    (-2.000000e-04 2.449294e-20 7.605634e-02) // 222
    (-3.673940e-20 -2.000000e-04 7.605634e-02) // 223
    (2.500000e-04 0.000000e+00 7.887324e-02) // 224
    (1.530808e-20 2.500000e-04 7.887324e-02) // 225
    (-2.500000e-04 3.061617e-20 7.887324e-02) // 226
    (-4.592425e-20 -2.500000e-04 7.887324e-02) // 227
    (2.000000e-04 0.000000e+00 7.887324e-02) // 228
    (1.224647e-20 2.000000e-04 7.887324e-02) // 229
    (-2.000000e-04 2.449294e-20 7.887324e-02) // 230
    (-3.673940e-20 -2.000000e-04 7.887324e-02) // 231
    (2.500000e-04 0.000000e+00 8.169014e-02) // 232
    (1.530808e-20 2.500000e-04 8.169014e-02) // 233
    (-2.500000e-04 3.061617e-20 8.169014e-02) // 234
    (-4.592425e-20 -2.500000e-04 8.169014e-02) // 235
    (2.000000e-04 0.000000e+00 8.169014e-02) // 236
    (1.224647e-20 2.000000e-04 8.169014e-02) // 237
    (-2.000000e-04 2.449294e-20 8.169014e-02) // 238
    (-3.673940e-20 -2.000000e-04 8.169014e-02) // 239
    (2.500000e-04 0.000000e+00 8.450704e-02) // 240
    (1.530808e-20 2.500000e-04 8.450704e-02) // 241
    (-2.500000e-04 3.061617e-20 8.450704e-02) // 242
    (-4.592425e-20 -2.500000e-04 8.450704e-02) // 243
    (2.000000e-04 0.000000e+00 8.450704e-02) // 244
    (1.224647e-20 2.000000e-04 8.450704e-02) // 245
    (-2.000000e-04 2.449294e-20 8.450704e-02) // 246
    (-3.673940e-20 -2.000000e-04 8.450704e-02) // 247
    (2.500000e-04 0.000000e+00 8.732394e-02) // 248
    (1.530808e-20 2.500000e-04 8.732394e-02) // 249
    (-2.500000e-04 3.061617e-20 8.732394e-02) // 250
    (-4.592425e-20 -2.500000e-04 8.732394e-02) // 251
    (2.000000e-04 0.000000e+00 8.732394e-02) // 252
    (1.224647e-20 2.000000e-04 8.732394e-02) // 253
    (-2.000000e-04 2.449294e-20 8.732394e-02) // 254
    (-3.673940e-20 -2.000000e-04 8.732394e-02) // 255
    (2.500000e-04 0.000000e+00 9.014085e-02) // 256
    (1.530808e-20 2.500000e-04 9.014085e-02) // 257
    (-2.500000e-04 3.061617e-20 9.014085e-02) // 258
    (-4.592425e-20 -2.500000e-04 9.014085e-02) // 259
    (2.000000e-04 0.000000e+00 9.014085e-02) // 260
    (1.224647e-20 2.000000e-04 9.014085e-02) // 261
    (-2.000000e-04 2.449294e-20 9.014085e-02) // 262
    (-3.673940e-20 -2.000000e-04 9.014085e-02) // 263
    (2.500000e-04 0.000000e+00 9.295775e-02) // 264
    (1.530808e-20 2.500000e-04 9.295775e-02) // 265
    (-2.500000e-04 3.061617e-20 9.295775e-02) // 266
    (-4.592425e-20 -2.500000e-04 9.295775e-02) // 267
    (2.000000e-04 0.000000e+00 9.295775e-02) // 268
    (1.224647e-20 2.000000e-04 9.295775e-02) // 269
    (-2.000000e-04 2.449294e-20 9.295775e-02) // 270
    (-3.673940e-20 -2.000000e-04 9.295775e-02) // 271
    (2.500000e-04 0.000000e+00 9.577465e-02) // 272
    (1.530808e-20 2.500000e-04 9.577465e-02) // 273
    (-2.500000e-04 3.061617e-20 9.577465e-02) // 274
    (-4.592425e-20 -2.500000e-04 9.577465e-02) // 275
    (2.000000e-04 0.000000e+00 9.577465e-02) // 276
    (1.224647e-20 2.000000e-04 9.577465e-02) // 277
    (-2.000000e-04 2.449294e-20 9.577465e-02) // 278
    (-3.673940e-20 -2.000000e-04 9.577465e-02) // 279
    (2.500000e-04 0.000000e+00 9.859155e-02) // 280
    (1.530808e-20 2.500000e-04 9.859155e-02) // 281
    (-2.500000e-04 3.061617e-20 9.859155e-02) // 282
    (-4.592425e-20 -2.500000e-04 9.859155e-02) // 283
    (2.000000e-04 0.000000e+00 9.859155e-02) // 284
    (1.224647e-20 2.000000e-04 9.859155e-02) // 285
    (-2.000000e-04 2.449294e-20 9.859155e-02) // 286
    (-3.673940e-20 -2.000000e-04 9.859155e-02) // 287
    (2.500000e-04 0.000000e+00 1.014085e-01) // 288
    (1.530808e-20 2.500000e-04 1.014085e-01) // 289
    (-2.500000e-04 3.061617e-20 1.014085e-01) // 290
    (-4.592425e-20 -2.500000e-04 1.014085e-01) // 291
    (2.000000e-04 0.000000e+00 1.014085e-01) // 292
    (1.224647e-20 2.000000e-04 1.014085e-01) // 293
    (-2.000000e-04 2.449294e-20 1.014085e-01) // 294
    (-3.673940e-20 -2.000000e-04 1.014085e-01) // 295
    (2.500000e-04 0.000000e+00 1.042254e-01) // 296
    (1.530808e-20 2.500000e-04 1.042254e-01) // 297
    (-2.500000e-04 3.061617e-20 1.042254e-01) // 298
    (-4.592425e-20 -2.500000e-04 1.042254e-01) // 299
    (2.000000e-04 0.000000e+00 1.042254e-01) // 300
    (1.224647e-20 2.000000e-04 1.042254e-01) // 301
    (-2.000000e-04 2.449294e-20 1.042254e-01) // 302
    (-3.673940e-20 -2.000000e-04 1.042254e-01) // 303
    (2.500000e-04 0.000000e+00 1.070423e-01) // 304
    (1.530808e-20 2.500000e-04 1.070423e-01) // 305
    (-2.500000e-04 3.061617e-20 1.070423e-01) // 306
    (-4.592425e-20 -2.500000e-04 1.070423e-01) // 307
    (2.000000e-04 0.000000e+00 1.070423e-01) // 308
    (1.224647e-20 2.000000e-04 1.070423e-01) // 309
    (-2.000000e-04 2.449294e-20 1.070423e-01) // 310
    (-3.673940e-20 -2.000000e-04 1.070423e-01) // 311
    (2.500000e-04 0.000000e+00 1.098592e-01) // 312
    (1.530808e-20 2.500000e-04 1.098592e-01) // 313
    (-2.500000e-04 3.061617e-20 1.098592e-01) // 314
    (-4.592425e-20 -2.500000e-04 1.098592e-01) // 315
    (2.000000e-04 0.000000e+00 1.098592e-01) // 316
    (1.224647e-20 2.000000e-04 1.098592e-01) // 317
    (-2.000000e-04 2.449294e-20 1.098592e-01) // 318
    (-3.673940e-20 -2.000000e-04 1.098592e-01) // 319
    (2.500000e-04 0.000000e+00 1.126761e-01) // 320
    (1.530808e-20 2.500000e-04 1.126761e-01) // 321
    (-2.500000e-04 3.061617e-20 1.126761e-01) // 322
    (-4.592425e-20 -2.500000e-04 1.126761e-01) // 323
    (2.000000e-04 0.000000e+00 1.126761e-01) // 324
    (1.224647e-20 2.000000e-04 1.126761e-01) // 325
    (-2.000000e-04 2.449294e-20 1.126761e-01) // 326
    (-3.673940e-20 -2.000000e-04 1.126761e-01) // 327
    (2.500000e-04 0.000000e+00 1.154930e-01) // 328
    (1.530808e-20 2.500000e-04 1.154930e-01) // 329
    (-2.500000e-04 3.061617e-20 1.154930e-01) // 330
    (-4.592425e-20 -2.500000e-04 1.154930e-01) // 331
    (2.000000e-04 0.000000e+00 1.154930e-01) // 332
    (1.224647e-20 2.000000e-04 1.154930e-01) // 333
    (-2.000000e-04 2.449294e-20 1.154930e-01) // 334
    (-3.673940e-20 -2.000000e-04 1.154930e-01) // 335
    (2.500000e-04 0.000000e+00 1.183099e-01) // 336
    (1.530808e-20 2.500000e-04 1.183099e-01) // 337
    (-2.500000e-04 3.061617e-20 1.183099e-01) // 338
    (-4.592425e-20 -2.500000e-04 1.183099e-01) // 339
    (2.000000e-04 0.000000e+00 1.183099e-01) // 340
    (1.224647e-20 2.000000e-04 1.183099e-01) // 341
    (-2.000000e-04 2.449294e-20 1.183099e-01) // 342
    (-3.673940e-20 -2.000000e-04 1.183099e-01) // 343
    (2.500000e-04 0.000000e+00 1.211268e-01) // 344
    (1.530808e-20 2.500000e-04 1.211268e-01) // 345
    (-2.500000e-04 3.061617e-20 1.211268e-01) // 346
    (-4.592425e-20 -2.500000e-04 1.211268e-01) // 347
    (2.000000e-04 0.000000e+00 1.211268e-01) // 348
    (1.224647e-20 2.000000e-04 1.211268e-01) // 349
    (-2.000000e-04 2.449294e-20 1.211268e-01) // 350
    (-3.673940e-20 -2.000000e-04 1.211268e-01) // 351
    (2.500000e-04 0.000000e+00 1.239437e-01) // 352
    (1.530808e-20 2.500000e-04 1.239437e-01) // 353
    (-2.500000e-04 3.061617e-20 1.239437e-01) // 354
    (-4.592425e-20 -2.500000e-04 1.239437e-01) // 355
    (2.000000e-04 0.000000e+00 1.239437e-01) // 356
    (1.224647e-20 2.000000e-04 1.239437e-01) // 357
    (-2.000000e-04 2.449294e-20 1.239437e-01) // 358
    (-3.673940e-20 -2.000000e-04 1.239437e-01) // 359
    (2.500000e-04 0.000000e+00 1.267606e-01) // 360
    (1.530808e-20 2.500000e-04 1.267606e-01) // 361
    (-2.500000e-04 3.061617e-20 1.267606e-01) // 362
    (-4.592425e-20 -2.500000e-04 1.267606e-01) // 363
    (2.000000e-04 0.000000e+00 1.267606e-01) // 364
    (1.224647e-20 2.000000e-04 1.267606e-01) // 365
    (-2.000000e-04 2.449294e-20 1.267606e-01) // 366
    (-3.673940e-20 -2.000000e-04 1.267606e-01) // 367
    (2.500000e-04 0.000000e+00 1.295775e-01) // 368
    (1.530808e-20 2.500000e-04 1.295775e-01) // 369
    (-2.500000e-04 3.061617e-20 1.295775e-01) // 370
    (-4.592425e-20 -2.500000e-04 1.295775e-01) // 371
    (2.000000e-04 0.000000e+00 1.295775e-01) // 372
    (1.224647e-20 2.000000e-04 1.295775e-01) // 373
    (-2.000000e-04 2.449294e-20 1.295775e-01) // 374
    (-3.673940e-20 -2.000000e-04 1.295775e-01) // 375
    (2.500000e-04 0.000000e+00 1.323944e-01) // 376
    (1.530808e-20 2.500000e-04 1.323944e-01) // 377
    (-2.500000e-04 3.061617e-20 1.323944e-01) // 378
    (-4.592425e-20 -2.500000e-04 1.323944e-01) // 379
    (2.000000e-04 0.000000e+00 1.323944e-01) // 380
    (1.224647e-20 2.000000e-04 1.323944e-01) // 381
    (-2.000000e-04 2.449294e-20 1.323944e-01) // 382
    (-3.673940e-20 -2.000000e-04 1.323944e-01) // 383
    (2.500000e-04 0.000000e+00 1.352113e-01) // 384
    (1.530808e-20 2.500000e-04 1.352113e-01) // 385
    (-2.500000e-04 3.061617e-20 1.352113e-01) // 386
    (-4.592425e-20 -2.500000e-04 1.352113e-01) // 387
    (2.000000e-04 0.000000e+00 1.352113e-01) // 388
    (1.224647e-20 2.000000e-04 1.352113e-01) // 389
    (-2.000000e-04 2.449294e-20 1.352113e-01) // 390
    (-3.673940e-20 -2.000000e-04 1.352113e-01) // 391
    (2.500000e-04 0.000000e+00 1.380282e-01) // 392
    (1.530808e-20 2.500000e-04 1.380282e-01) // 393
    (-2.500000e-04 3.061617e-20 1.380282e-01) // 394
    (-4.592425e-20 -2.500000e-04 1.380282e-01) // 395
    (2.000000e-04 0.000000e+00 1.380282e-01) // 396
    (1.224647e-20 2.000000e-04 1.380282e-01) // 397
    (-2.000000e-04 2.449294e-20 1.380282e-01) // 398
    (-3.673940e-20 -2.000000e-04 1.380282e-01) // 399
    (2.500000e-04 0.000000e+00 1.408451e-01) // 400
    (1.530808e-20 2.500000e-04 1.408451e-01) // 401
    (-2.500000e-04 3.061617e-20 1.408451e-01) // 402
    (-4.592425e-20 -2.500000e-04 1.408451e-01) // 403
    (2.000000e-04 0.000000e+00 1.408451e-01) // 404
    (1.224647e-20 2.000000e-04 1.408451e-01) // 405
    (-2.000000e-04 2.449294e-20 1.408451e-01) // 406
    (-3.673940e-20 -2.000000e-04 1.408451e-01) // 407
    (2.500000e-04 0.000000e+00 1.436620e-01) // 408
    (1.530808e-20 2.500000e-04 1.436620e-01) // 409
    (-2.500000e-04 3.061617e-20 1.436620e-01) // 410
    (-4.592425e-20 -2.500000e-04 1.436620e-01) // 411
    (2.000000e-04 0.000000e+00 1.436620e-01) // 412
    (1.224647e-20 2.000000e-04 1.436620e-01) // 413
    (-2.000000e-04 2.449294e-20 1.436620e-01) // 414
    (-3.673940e-20 -2.000000e-04 1.436620e-01) // 415
    (2.500000e-04 0.000000e+00 1.464789e-01) // 416
    (1.530808e-20 2.500000e-04 1.464789e-01) // 417
    (-2.500000e-04 3.061617e-20 1.464789e-01) // 418
    (-4.592425e-20 -2.500000e-04 1.464789e-01) // 419
    (2.000000e-04 0.000000e+00 1.464789e-01) // 420
    (1.224647e-20 2.000000e-04 1.464789e-01) // 421
    (-2.000000e-04 2.449294e-20 1.464789e-01) // 422
    (-3.673940e-20 -2.000000e-04 1.464789e-01) // 423
    (2.500000e-04 0.000000e+00 1.492958e-01) // 424
    (1.530808e-20 2.500000e-04 1.492958e-01) // 425
    (-2.500000e-04 3.061617e-20 1.492958e-01) // 426
    (-4.592425e-20 -2.500000e-04 1.492958e-01) // 427
    (2.000000e-04 0.000000e+00 1.492958e-01) // 428
    (1.224647e-20 2.000000e-04 1.492958e-01) // 429
    (-2.000000e-04 2.449294e-20 1.492958e-01) // 430
    (-3.673940e-20 -2.000000e-04 1.492958e-01) // 431
    (2.500000e-04 0.000000e+00 1.521127e-01) // 432
    (1.530808e-20 2.500000e-04 1.521127e-01) // 433
    (-2.500000e-04 3.061617e-20 1.521127e-01) // 434
    (-4.592425e-20 -2.500000e-04 1.521127e-01) // 435
    (2.000000e-04 0.000000e+00 1.521127e-01) // 436
    (1.224647e-20 2.000000e-04 1.521127e-01) // 437
    (-2.000000e-04 2.449294e-20 1.521127e-01) // 438
    (-3.673940e-20 -2.000000e-04 1.521127e-01) // 439
    (2.500000e-04 0.000000e+00 1.549296e-01) // 440
    (1.530808e-20 2.500000e-04 1.549296e-01) // 441
    (-2.500000e-04 3.061617e-20 1.549296e-01) // 442
    (-4.592425e-20 -2.500000e-04 1.549296e-01) // 443
    (2.000000e-04 0.000000e+00 1.549296e-01) // 444
    (1.224647e-20 2.000000e-04 1.549296e-01) // 445
    (-2.000000e-04 2.449294e-20 1.549296e-01) // 446
    (-3.673940e-20 -2.000000e-04 1.549296e-01) // 447
    (2.500000e-04 0.000000e+00 1.577465e-01) // 448
    (1.530808e-20 2.500000e-04 1.577465e-01) // 449
    (-2.500000e-04 3.061617e-20 1.577465e-01) // 450
    (-4.592425e-20 -2.500000e-04 1.577465e-01) // 451
    (2.000000e-04 0.000000e+00 1.577465e-01) // 452
    (1.224647e-20 2.000000e-04 1.577465e-01) // 453
    (-2.000000e-04 2.449294e-20 1.577465e-01) // 454
    (-3.673940e-20 -2.000000e-04 1.577465e-01) // 455
    (2.500000e-04 0.000000e+00 1.605634e-01) // 456
    (1.530808e-20 2.500000e-04 1.605634e-01) // 457
    (-2.500000e-04 3.061617e-20 1.605634e-01) // 458
    (-4.592425e-20 -2.500000e-04 1.605634e-01) // 459
    (2.000000e-04 0.000000e+00 1.605634e-01) // 460
    (1.224647e-20 2.000000e-04 1.605634e-01) // 461
    (-2.000000e-04 2.449294e-20 1.605634e-01) // 462
    (-3.673940e-20 -2.000000e-04 1.605634e-01) // 463
    (2.500000e-04 0.000000e+00 1.633803e-01) // 464
    (1.530808e-20 2.500000e-04 1.633803e-01) // 465
    (-2.500000e-04 3.061617e-20 1.633803e-01) // 466
    (-4.592425e-20 -2.500000e-04 1.633803e-01) // 467
    (2.000000e-04 0.000000e+00 1.633803e-01) // 468
    (1.224647e-20 2.000000e-04 1.633803e-01) // 469
    (-2.000000e-04 2.449294e-20 1.633803e-01) // 470
    (-3.673940e-20 -2.000000e-04 1.633803e-01) // 471
    (2.500000e-04 0.000000e+00 1.661972e-01) // 472
    (1.530808e-20 2.500000e-04 1.661972e-01) // 473
    (-2.500000e-04 3.061617e-20 1.661972e-01) // 474
    (-4.592425e-20 -2.500000e-04 1.661972e-01) // 475
    (2.000000e-04 0.000000e+00 1.661972e-01) // 476
    (1.224647e-20 2.000000e-04 1.661972e-01) // 477
    (-2.000000e-04 2.449294e-20 1.661972e-01) // 478
    (-3.673940e-20 -2.000000e-04 1.661972e-01) // 479
    (2.500000e-04 0.000000e+00 1.690141e-01) // 480
    (1.530808e-20 2.500000e-04 1.690141e-01) // 481
    (-2.500000e-04 3.061617e-20 1.690141e-01) // 482
    (-4.592425e-20 -2.500000e-04 1.690141e-01) // 483
    (2.000000e-04 0.000000e+00 1.690141e-01) // 484
    (1.224647e-20 2.000000e-04 1.690141e-01) // 485
    (-2.000000e-04 2.449294e-20 1.690141e-01) // 486
    (-3.673940e-20 -2.000000e-04 1.690141e-01) // 487
    (2.500000e-04 0.000000e+00 1.718310e-01) // 488
    (1.530808e-20 2.500000e-04 1.718310e-01) // 489
    (-2.500000e-04 3.061617e-20 1.718310e-01) // 490
    (-4.592425e-20 -2.500000e-04 1.718310e-01) // 491
    (2.000000e-04 0.000000e+00 1.718310e-01) // 492
    (1.224647e-20 2.000000e-04 1.718310e-01) // 493
    (-2.000000e-04 2.449294e-20 1.718310e-01) // 494
    (-3.673940e-20 -2.000000e-04 1.718310e-01) // 495
    (2.500000e-04 0.000000e+00 1.746479e-01) // 496
    (1.530808e-20 2.500000e-04 1.746479e-01) // 497
    (-2.500000e-04 3.061617e-20 1.746479e-01) // 498
    (-4.592425e-20 -2.500000e-04 1.746479e-01) // 499
    (2.000000e-04 0.000000e+00 1.746479e-01) // 500
    (1.224647e-20 2.000000e-04 1.746479e-01) // 501
    (-2.000000e-04 2.449294e-20 1.746479e-01) // 502
    (-3.673940e-20 -2.000000e-04 1.746479e-01) // 503
    (2.500000e-04 0.000000e+00 1.774648e-01) // 504
    (1.530808e-20 2.500000e-04 1.774648e-01) // 505
    (-2.500000e-04 3.061617e-20 1.774648e-01) // 506
    (-4.592425e-20 -2.500000e-04 1.774648e-01) // 507
    (2.000000e-04 0.000000e+00 1.774648e-01) // 508
    (1.224647e-20 2.000000e-04 1.774648e-01) // 509
    (-2.000000e-04 2.449294e-20 1.774648e-01) // 510
    (-3.673940e-20 -2.000000e-04 1.774648e-01) // 511
    (2.500000e-04 0.000000e+00 1.802817e-01) // 512
    (1.530808e-20 2.500000e-04 1.802817e-01) // 513
    (-2.500000e-04 3.061617e-20 1.802817e-01) // 514
    (-4.592425e-20 -2.500000e-04 1.802817e-01) // 515
    (2.000000e-04 0.000000e+00 1.802817e-01) // 516
    (1.224647e-20 2.000000e-04 1.802817e-01) // 517
    (-2.000000e-04 2.449294e-20 1.802817e-01) // 518
    (-3.673940e-20 -2.000000e-04 1.802817e-01) // 519
    (2.500000e-04 0.000000e+00 1.830986e-01) // 520
    (1.530808e-20 2.500000e-04 1.830986e-01) // 521
    (-2.500000e-04 3.061617e-20 1.830986e-01) // 522
    (-4.592425e-20 -2.500000e-04 1.830986e-01) // 523
    (2.000000e-04 0.000000e+00 1.830986e-01) // 524
    (1.224647e-20 2.000000e-04 1.830986e-01) // 525
    (-2.000000e-04 2.449294e-20 1.830986e-01) // 526
    (-3.673940e-20 -2.000000e-04 1.830986e-01) // 527
    (2.500000e-04 0.000000e+00 1.859155e-01) // 528
    (1.530808e-20 2.500000e-04 1.859155e-01) // 529
    (-2.500000e-04 3.061617e-20 1.859155e-01) // 530
    (-4.592425e-20 -2.500000e-04 1.859155e-01) // 531
    (2.000000e-04 0.000000e+00 1.859155e-01) // 532
    (1.224647e-20 2.000000e-04 1.859155e-01) // 533
    (-2.000000e-04 2.449294e-20 1.859155e-01) // 534
    (-3.673940e-20 -2.000000e-04 1.859155e-01) // 535
    (2.500000e-04 0.000000e+00 1.887324e-01) // 536
    (1.530808e-20 2.500000e-04 1.887324e-01) // 537
    (-2.500000e-04 3.061617e-20 1.887324e-01) // 538
    (-4.592425e-20 -2.500000e-04 1.887324e-01) // 539
    (2.000000e-04 0.000000e+00 1.887324e-01) // 540
    (1.224647e-20 2.000000e-04 1.887324e-01) // 541
    (-2.000000e-04 2.449294e-20 1.887324e-01) // 542
    (-3.673940e-20 -2.000000e-04 1.887324e-01) // 543
    (2.500000e-04 0.000000e+00 1.915493e-01) // 544
    (1.530808e-20 2.500000e-04 1.915493e-01) // 545
    (-2.500000e-04 3.061617e-20 1.915493e-01) // 546
    (-4.592425e-20 -2.500000e-04 1.915493e-01) // 547
    (2.000000e-04 0.000000e+00 1.915493e-01) // 548
    (1.224647e-20 2.000000e-04 1.915493e-01) // 549
    (-2.000000e-04 2.449294e-20 1.915493e-01) // 550
    (-3.673940e-20 -2.000000e-04 1.915493e-01) // 551
    (2.500000e-04 0.000000e+00 1.943662e-01) // 552
    (1.530808e-20 2.500000e-04 1.943662e-01) // 553
    (-2.500000e-04 3.061617e-20 1.943662e-01) // 554