/*--------------------------------*- C++ -*----------------------------------*\\
| =========                 |                                                 |
| \\      /  F ield         | OpenFOAM: The Open Source CFD Toolbox           |
|  \\    /   O peration     | Version:  v2512                                 |
|   \\  /    A nd           | Website:  www.openfoam.com                      |
|    \\/     M anipulation  |                                                 |
\*---------------------------------------------------------------------------*/
FoamFile
{
    version     2.0;
    format      ascii;
    class       dictionary;
    object      blockMeshDict;
}
// * * * * * * * * * * * * * * * * * * * * * * * * * * * * * * * * * * * * * //

scale 1;

vertices
(
    (2.500000e-04 0.000000e+00 0.000000e+00) // 0
    (1.530808e-20 2.500000e-04 0.000000e+00) // 1
    (-2.500000e-04 3.061617e-20 0.000000e+00) // 2
    (-4.592425e-20 -2.500000e-04 0.000000e+00) // 3
    (2.125000e-04 0.000000e+00 0.000000e+00) // 4
    (1.301187e-20 2.125000e-04 0.000000e+00) // 5
    (-2.125000e-04 2.602374e-20 0.000000e+00) // 6
    (-3.903562e-20 -2.125000e-04 0.000000e+00) // 7
    (2.500000e-04 0.000000e+00 1.694915e-02) // 8
    (1.530808e-20 2.500000e-04 1.694915e-02) // 9
    (-2.500000e-04 3.061617e-20 1.694915e-02) // 10
    (-4.592425e-20 -2.500000e-04 1.694915e-02) // 11
    (2.125000e-04 0.000000e+00 1.694915e-02) // 12
    (1.301187e-20 2.125000e-04 1.694915e-02) // 13
    (-2.125000e-04 2.602374e-20 1.694915e-02) // 14
    (-3.903562e-20 -2.125000e-04 1.694915e-02) // 15
    (2.500000e-04 0.000000e+00 3.389831e-02) // 16
    (1.530808e-20 2.500000e-04 3.389831e-02) // 17
    (-2.500000e-04 3.061617e-20 3.389831e-02) // 18
    (-4.592425e-20 -2.500000e-04 3.389831e-02) // 19
    (2.125000e-04 0.000000e+00 3.389831e-02) // 20
    (1.301187e-20 2.125000e-04 3.389831e-02) // 21
    (-2.125000e-04 2.602374e-20 3.389831e-02) // 22
    (-3.903562e-20 -2.125000e-04 3.389831e-02) // 23
    (2.500000e-04 0.000000e+00 5.084746e-02) // 24
    (1.530808e-20 2.500000e-04 5.084746e-02) // 25
    (-2.500000e-04 3.061617e-20 5.084746e-02) // 26
    (-4.592425e-20 -2.500000e-04 5.084746e-02) // 27
    (2.125000e-04 0.000000e+00 5.084746e-02) // 28
    (1.301187e-20 2.125000e-04 5.084746e-02) // 29
    (-2.125000e-04 2.602374e-20 5.084746e-02) // 30
    (-3.903562e-20 -2.125000e-04 5.084746e-02) // 31
    (2.500000e-04 0.000000e+00 6.779661e-02) // 32
    (1.530808e-20 2.500000e-04 6.779661e-02) // 33
    (-2.500000e-04 3.061617e-20 6.779661e-02) // 34
    (-4.592425e-20 -2.500000e-04 6.779661e-02) // 35
    (2.125000e-04 0.000000e+00 6.779661e-02) // 36
    (1.301187e-20 2.125000e-04 6.779661e-02) // 37
    (-2.125000e-04 2.602374e-20 6.779661e-02) // 38
    (-3.903562e-20 -2.125000e-04 6.779661e-02) // 39
    (2.500000e-04 0.000000e+00 8.474576e-02) // 40
    (1.530808e-20 2.500000e-04 8.474576e-02) // 41
    (-2.500000e-04 3.061617e-20 8.474576e-02) // 42
    (-4.592425e-20 -2.500000e-04 8.474576e-02) // 43
    (2.125000e-04 0.000000e+00 8.474576e-02) // 44
    (1.301187e-20 2.125000e-04 8.474576e-02) // 45
    (-2.125000e-04 2.602374e-20 8.474576e-02) // 46
    (-3.903562e-20 -2.125000e-04 8.474576e-02) // 47
    (2.500000e-04 0.000000e+00 1.016949e-01) // 48
    (1.530808e-20 2.500000e-04 1.016949e-01) // 49
    (-2.500000e-04 3.061617e-20 1.016949e-01) // 50
    (-4.592425e-20 -2.500000e-04 1.016949e-01) // 51
    (2.125000e-04 0.000000e+00 1.016949e-01) // 52
    (1.301187e-20 2.125000e-04 1.016949e-01) // 53
    (-2.125000e-04 2.602374e-20 1.016949e-01) // 54
    (-3.903562e-20 -2.125000e-04 1.016949e-01) // 55
    (2.500000e-04 0.000000e+00 1.186441e-01) // 56
    (1.530808e-20 2.500000e-04 1.186441e-01) // 57
    (-2.500000e-04 3.061617e-20 1.186441e-01) // 58
    (-4.592425e-20 -2.500000e-04 1.186441e-01) // 59
    (2.125000e-04 0.000000e+00 1.186441e-01) // 60
    (1.301187e-20 2.125000e-04 1.186441e-01) // 61
    (-2.125000e-04 2.602374e-20 1.186441e-01) // 62
    (-3.903562e-20 -2.125000e-04 1.186441e-01) // 63
    (2.500000e-04 0.000000e+00 1.355932e-01) // 64
    (1.530808e-20 2.500000e-04 1.355932e-01) // 65
    (-2.500000e-04 3.061617e-20 1.355932e-01) // 66
    (-4.592425e-20 -2.500000e-04 1.355932e-01) // 67
    (2.125000e-04 0.000000e+00 1.355932e-01) // 68
    (1.301187e-20 2.125000e-04 1.355932e-01) // 69
    (-2.125000e-04 2.602374e-20 1.355932e-01) // 70
    (-3.903562e-20 -2.125000e-04 1.355932e-01) // 71
    (2.500000e-04 0.000000e+00 1.525424e-01) // 72
    (1.530808e-20 2.500000e-04 1.525424e-01) // 73
    (-2.500000e-04 3.061617e-20 1.525424e-01) // 74
    (-4.592425e-20 -2.500000e-04 1.525424e-01) // 75
    (2.125000e-04 0.000000e+00 1.525424e-01) // 76
    (1.301187e-20 2.125000e-04 1.525424e-01) // 77
    (-2.125000e-04 2.602374e-20 1.525424e-01) // 78
    (-3.903562e-20 -2.125000e-04 1.525424e-01) // 79
    (2.500000e-04 0.000000e+00 1.694915e-01) // 80
    (1.530808e-20 2.500000e-04 1.694915e-01) // 81
    (-2.500000e-04 3.061617e-20 1.694915e-01) // 82
    (-4.592425e-20 -2.500000e-04 1.694915e-01) // 83
    (2.125000e-04 0.000000e+00 1.694915e-01) // 84
    (1.301187e-20 2.125000e-04 1.694915e-01) // 85
    (-2.125000e-04 2.602374e-20 1.694915e-01) // 86
    (-3.903562e-20 -2.125000e-04 1.694915e-01) // 87
    (2.500000e-04 0.000000e+00 1.864407e-01) // 88
    (1.530808e-20 2.500000e-04 1.864407e-01) // 89
    (-2.500000e-04 3.061617e-20 1.864407e-01) // 90
    (-4.592425e-20 -2.500000e-04 1.864407e-01) // 91
    (2.125000e-04 0.000000e+00 1.864407e-01) // 92
    (1.301187e-20 2.125000e-04 1.864407e-01) // 93
    (-2.125000e-04 2.602374e-20 1.864407e-01) // 94
    (-3.903562e-20 -2.125000e-04 1.864407e-01) // 95
    (2.500000e-04 0.000000e+00 2.033898e-01) // 96
    (1.530808e-20 2.500000e-04 2.033898e-01) // 97
    (-2.500000e-04 3.061617e-20 2.033898e-01) // 98
    (-4.592425e-20 -2.500000e-04 2.033898e-01) // 99
    (2.125000e-04 0.000000e+00 2.033898e-01) // 100
    (1.301187e-20 2.125000e-04 2.033898e-01) // 101
    (-2.125000e-04 2.602374e-20 2.033898e-01) // 102
    (-3.903562e-20 -2.125000e-04 2.033898e-01) // 103
    (2.500000e-04 0.000000e+00 2.203390e-01) // 104
    (1.530808e-20 2.500000e-04 2.203390e-01) // 105
    (-2.500000e-04 3.061617e-20 2.203390e-01) // 106
    (-4.592425e-20 -2.500000e-04 2.203390e-01) // 107
    (2.125000e-04 0.000000e+00 2.203390e-01) // 108
    (1.301187e-20 2.125000e-04 2.203390e-01) // 109
    (-2.125000e-04 2.602374e-20 2.203390e-01) // 110
    (-3.903562e-20 -2.125000e-04 2.203390e-01) // 111
    (2.500000e-04 0.000000e+00 2.372881e-01) // 112
    (1.530808e-20 2.500000e-04 2.372881e-01) // 113
    (-2.500000e-04 3.061617e-20 2.372881e-01) // 114
    (-4.592425e-20 -2.500000e-04 2.372881e-01) // 115
    (2.125000e-04 0.000000e+00 2.372881e-01) // 116
    (1.301187e-20 2.125000e-04 2.372881e-01) // 117
    (-2.125000e-04 2.602374e-20 2.372881e-01) // 118
    (-3.903562e-20 -2.125000e-04 2.372881e-01) // 119
    (2.500000e-04 0.000000e+00 2.542373e-01) // 120
    (1.530808e-20 2.500000e-04 2.542373e-01) // 121
    (-2.500000e-04 3.061617e-20 2.542373e-01) // 122
    (-4.592425e-20 -2.500000e-04 2.542373e-01) // 123
    (2.125000e-04 0.000000e+00 2.542373e-01) // 124
    (1.301187e-20 2.125000e-04 2.542373e-01) // 125
    (-2.125000e-04 2.602374e-20 2.542373e-01) // 126
    (-3.903562e-20 -2.125000e-04 2.542373e-01) // 127
    (2.500000e-04 0.000000e+00 2.711864e-01) // 128
    (1.530808e-20 2.500000e-04 2.711864e-01) // 129
    (-2.500000e-04 3.061617e-20 2.711864e-01) // 130
    (-4.592425e-20 -2.500000e-04 2.711864e-01) // 131
    (2.125000e-04 0.000000e+00 2.711864e-01) // 132
    (1.301187e-20 2.125000e-04 2.711864e-01) // 133
    (-2.125000e-04 2.602374e-20 2.711864e-01) // 134
    (-3.903562e-20 -2.125000e-04 2.711864e-01) // 135
    (2.500000e-04 0.000000e+00 2.881356e-01) // 136
    (1.530808e-20 2.500000e-04 2.881356e-01) // 137
    (-2.500000e-04 3.061617e-20 2.881356e-01) // 138
    (-4.592425e-20 -2.500000e-04 2.881356e-01) // 139
    (2.125000e-04 0.000000e+00 2.881356e-01) // 140
    (1.301187e-20 2.125000e-04 2.881356e-01) // 141
    (-2.125000e-04 2.602374e-20 2.881356e-01) // 142
    (-3.903562e-20 -2.125000e-04 2.881356e-01) // 143
    (2.500000e-04 0.000000e+00 3.050847e-01) // 144
    (1.530808e-20 2.500000e-04 3.050847e-01) // 145
    (-2.500000e-04 3.061617e-20 3.050847e-01) // 146
    (-4.592425e-20 -2.500000e-04 3.050847e-01) // 147
    (2.125000e-04 0.000000e+00 3.050847e-01) // 148
    (1.301187e-20 2.125000e-04 3.050847e-01) // 149
    (-2.125000e-04 2.602374e-20 3.050847e-01) // 150
    (-3.903562e-20 -2.125000e-04 3.050847e-01) // 151
    (2.500000e-04 0.000000e+00 3.220339e-01) // 152
    (1.530808e-20 2.500000e-04 3.220339e-01) // 153
    (-2.500000e-04 3.061617e-20 3.220339e-01) // 154
    (-4.592425e-20 -2.500000e-04 3.220339e-01) // 155
    (2.125000e-04 0.000000e+00 3.220339e-01) // 156
    (1.301187e-20 2.125000e-04 3.220339e-01) // 157
    (-2.125000e-04 2.602374e-20 3.220339e-01) // 158
    (-3.903562e-20 -2.125000e-04 3.220339e-01) // 159
    (2.500000e-04 0.000000e+00 3.389831e-01) // 160
    (1.530808e-20 2.500000e-04 3.389831e-01) // 161
    (-2.500000e-04 3.061617e-20 3.389831e-01) // 162
    (-4.592425e-20 -2.500000e-04 3.389831e-01) // 163
    (2.125000e-04 0.000000e+00 3.389831e-01) // 164
    (1.301187e-20 2.125000e-04 3.389831e-01) // 165
    (-2.125000e-04 2.602374e-20 3.389831e-01) // 166
    (-3.903562e-20 -2.125000e-04 3.389831e-01) // 167
    (2.500000e-04 0.000000e+00 3.559322e-01) // 168
    (1.530808e-20 2.500000e-04 3.559322e-01) // 169
    (-2.500000e-04 3.061617e-20 3.559322e-01) // 170
    (-4.592425e-20 -2.500000e-04 3.559322e-01) // 171
    (2.125000e-04 0.000000e+00 3.559322e-01) // 172
    (1.301187e-20 2.125000e-04 3.559322e-01) // 173
    (-2.125000e-04 2.602374e-20 3.559322e-01) // 174
    (-3.903562e-20 -2.125000e-04 3.559322e-01) // 175
    (2.500000e-04 0.000000e+00 3.728814e-01) // 176
    (1.530808e-20 2.500000e-04 3.728814e-01) // 177
    (-2.500000e-04 3.061617e-20 3.728814e-01) // 178
    (-4.592425e-20 -2.500000e-04 3.728814e-01) // 179
    (2.125000e-04 0.000000e+00 3.728814e-01) // 180
    (1.301187e-20 2.125000e-04 3.728814e-01) // 181
    (-2.125000e-04 2.602374e-20 3.728814e-01) // 182
    (-3.903562e-20 -2.125000e-04 3.728814e-01) // 183
    (2.500000e-04 0.000000e+00 3.898305e-01) // 184
    (1.530808e-20 2.500000e-04 3.898305e-01) // 185
    (-2.500000e-04 3.061617e-20 3.898305e-01) // 186
    (-4.592425e-20 -2.500000e-04 3.898305e-01) // 187
    (2.125000e-04 0.000000e+00 3.898305e-01) // 188
    (1.301187e-20 2.125000e-04 3.898305e-01) // 189
    (-2.125000e-04 2.602374e-20 3.898305e-01) // 190
    (-3.903562e-20 -2.125000e-04 3.898305e-01) // 191
    (2.500000e-04 0.000000e+00 4.067797e-01) // 192
    (1.530808e-20 2.500000e-04 4.067797e-01) // 193
    (-2.500000e-04 3.061617e-20 4.067797e-01) // 194
    (-4.592425e-20 -2.500000e-04 4.067797e-01) // 195
    (2.125000e-04 0.000000e+00 4.067797e-01) // 196
    (1.301187e-20 2.125000e-04 4.067797e-01) // 197
    (-2.125000e-04 2.602374e-20 4.067797e-01) // 198
    (-3.903562e-20 -2.125000e-04 4.067797e-01) // 199
    (2.500000e-04 0.000000e+00 4.237288e-01) // 200
    (1.530808e-20 2.500000e-04 4.237288e-01) // 201
    (-2.500000e-04 3.061617e-20 4.237288e-01) // 202
    (-4.592425e-20 -2.500000e-04 4.237288e-01) // 203
    (2.125000e-04 0.000000e+00 4.237288e-01) // 204
    (1.301187e-20 2.125000e-04 4.237288e-01) // 205
    (-2.125000e-04 2.602374e-20 4.237288e-01) // 206
    (-3.903562e-20 -2.125000e-04 4.237288e-01) // 207
    (2.500000e-04 0.000000e+00 4.406780e-01) // 208
    (1.530808e-20 2.500000e-04 4.406780e-01) // 209
    (-2.500000e-04 3.061617e-20 4.406780e-01) // 210
    (-4.592425e-20 -2.500000e-04 4.406780e-01) // 211
    (2.125000e-04 0.000000e+00 4.406780e-01) // 212
    (1.301187e-20 2.125000e-04 4.406780e-01) // 213
    (-2.125000e-04 2.602374e-20 4.406780e-01) // 214
    (-3.903562e-20 -2.125000e-04 4.406780e-01) // 215
    (2.500000e-04 0.000000e+00 4.576271e-01) // 216
    (1.530808e-20 2.500000e-04 4.576271e-01) // 217
    (-2.500000e-04 3.061617e-20 4.576271e-01) // 218
    (-4.592425e-20 -2.500000e-04 4.576271e-01) // 219
    (2.125000e-04 0.000000e+00 4.576271e-01) // 220
    (1.301187e-20 2.125000e-04 4.576271e-01) // 221
    (-2.125000e-04 2.602374e-20 4.576271e-01) // 222
    (-3.903562e-20 -2.125000e-04 4.576271e-01) // 223
    (2.500000e-04 0.000000e+00 4.745763e-01) // 224
    (1.530808e-20 2.500000e-04 4.745763e-01) // 225
    (-2.500000e-04 3.061617e-20 4.745763e-01) // 226
    (-4.592425e-20 -2.500000e-04 4.745763e-01) // 227
    (2.125000e-04 0.000000e+00 4.745763e-01) // 228
    (1.301187e-20 2.125000e-04 4.745763e-01) // 229
    (-2.125000e-04 2.602374e-20 4.745763e-01) // 230
    (-3.903562e-20 -2.125000e-04 4.745763e-01) // 231
    (2.500000e-04 0.000000e+00 4.915254e-01) // 232
    (1.530808e-20 2.500000e-04 4.915254e-01) // 233
    (-2.500000e-04 3.061617e-20 4.915254e-01) // 234
    (-4.592425e-20 -2.500000e-04 4.915254e-01) // 235
    (2.125000e-04 0.000000e+00 4.915254e-01) // 236
    (1.301187e-20 2.125000e-04 4.915254e-01) // 237
    (-2.125000e-04 2.602374e-20 4.915254e-01) // 238
    (-3.903562e-20 -2.125000e-04 4.915254e-01) // 239
    (2.500000e-04 0.000000e+00 5.084746e-01) // 240
    (1.530808e-20 2.500000e-04 5.084746e-01) // 241
    (-2.500000e-04 3.061617e-20 5.084746e-01) // 242
    (-4.592425e-20 -2.500000e-04 5.084746e-01) // 243
    (2.125000e-04 0.000000e+00 5.084746e-01) // 244
    (1.301187e-20 2.125000e-04 5.084746e-01) // 245
    (-2.125000e-04 2.602374e-20 5.084746e-01) // 246
    (-3.903562e-20 -2.125000e-04 5.084746e-01) // 247
    (2.500000e-04 0.000000e+00 5.254237e-01) // 248
    (1.530808e-20 2.500000e-04 5.254237e-01) // 249
    (-2.500000e-04 3.061617e-20 5.254237e-01) // 250
    (-4.592425e-20 -2.500000e-04 5.254237e-01) // 251
    (2.125000e-04 0.000000e+00 5.254237e-01) // 252
    (1.301187e-20 2.125000e-04 5.254237e-01) // 253
    (-2.125000e-04 2.602374e-20 5.254237e-01) // 254
    (-3.903562e-20 -2.125000e-04 5.254237e-01) // 255
    (2.500000e-04 0.000000e+00 5.423729e-01) // 256
    (1.530808e-20 2.500000e-04 5.423729e-01) // 257
    (-2.500000e-04 3.061617e-20 5.423729e-01) // 258
    (-4.592425e-20 -2.500000e-04 5.423729e-01) // 259
    (2.125000e-04 0.000000e+00 5.423729e-01) // 260
    (1.301187e-20 2.125000e-04 5.423729e-01) // 261
    (-2.125000e-04 2.602374e-20 5.423729e-01) // 262
    (-3.903562e-20 -2.125000e-04 5.423729e-01) // 263
    (2.500000e-04 0.000000e+00 5.593220e-01) // 264
    (1.530808e-20 2.500000e-04 5.593220e-01) // 265
    (-2.500000e-04 3.061617e-20 5.593220e-01) // 266
    (-4.592425e-20 -2.500000e-04 5.593220e-01) // 267
    (2.125000e-04 0.000000e+00 5.593220e-01) // 268
    (1.301187e-20 2.125000e-04 5.593220e-01) // 269
    (-2.125000e-04 2.602374e-20 5.593220e-01) // 270
    (-3.903562e-20 -2.125000e-04 5.593220e-01) // 271
    (2.500000e-04 0.000000e+00 5.762712e-01) // 272
    (1.530808e-20 2.500000e-04 5.762712e-01) // 273
    (-2.500000e-04 3.061617e-20 5.762712e-01) // 274
    (-4.592425e-20 -2.500000e-04 5.762712e-01) // 275
    (2.125000e-04 0.000000e+00 5.762712e-01) // 276
    (1.301187e-20 2.125000e-04 5.762712e-01) // 277
    (-2.125000e-04 2.602374e-20 5.762712e-01) // 278
    (-3.903562e-20 -2.125000e-04 5.762712e-01) // 279
    (2.500000e-04 0.000000e+00 5.932203e-01) // 280
    (1.530808e-20 2.500000e-04 5.932203e-01) // 281
    (-2.500000e-04 3.061617e-20 5.932203e-01) // 282
    (-4.592425e-20 -2.500000e-04 5.932203e-01) // 283
    (2.125000e-04 0.000000e+00 5.932203e-01) // 284
    (1.301187e-20 2.125000e-04 5.932203e-01) // 285
    (-2.125000e-04 2.602374e-20 5.932203e-01) // 286
    (-3.903562e-20 -2.125000e-04 5.932203e-01) // 287
    (2.500000e-04 0.000000e+00 6.101695e-01) // 288
    (1.530808e-20 2.500000e-04 6.101695e-01) // 289
    (-2.500000e-04 3.061617e-20 6.101695e-01) // 290
    (-4.592425e-20 -2.500000e-04 6.101695e-01) // 291
    (2.125000e-04 0.000000e+00 6.101695e-01) // 292
    (1.301187e-20 2.125000e-04 6.101695e-01) // 293
    (-2.125000e-04 2.602374e-20 6.101695e-01) // 294
    (-3.903562e-20 -2.125000e-04 6.101695e-01) // 295
    (2.500000e-04 0.000000e+00 6.271186e-01) // 296
    (1.530808e-20 2.500000e-04 6.271186e-01) // 297
    (-2.500000e-04 3.061617e-20 6.271186e-01) // 298
    (-4.592425e-20 -2.500000e-04 6.271186e-01) // 299
    (2.125000e-04 0.000000e+00 6.271186e-01) // 300
    (1.301187e-20 2.125000e-04 6.271186e-01) // 301
    (-2.125000e-04 2.602374e-20 6.271186e-01) // 302
    (-3.903562e-20 -2.125000e-04 6.271186e-01) // 303
    (2.500000e-04 0.000000e+00 6.440678e-01) // 304
    (1.530808e-20 2.500000e-04 6.440678e-01) // 305
    (-2.500000e-04 3.061617e-20 6.440678e-01) // 306
    (-4.592425e-20 -2.500000e-04 6.440678e-01) // 307
    (2.125000e-04 0.000000e+00 6.440678e-01) // 308
    (1.301187e-20 2.125000e-04 6.440678e-01) // 309
    (-2.125000e-04 2.602374e-20 6.440678e-01) // 310
    (-3.903562e-20 -2.125000e-04 6.440678e-01) // 311
    (2.500000e-04 0.000000e+00 6.610169e-01) // 312
    (1.530808e-20 2.500000e-04 6.610169e-01) // 313
    (-2.500000e-04 3.061617e-20 6.610169e-01) // 314
    (-4.592425e-20 -2.500000e-04 6.610169e-01) // 315
    (2.125000e-04 0.000000e+00 6.610169e-01) // 316
    (1.301187e-20 2.125000e-04 6.610169e-01) // 317
    (-2.125000e-04 2.602374e-20 6.610169e-01) // 318
    (-3.903562e-20 -2.125000e-04 6.610169e-01) // 319
    (2.500000e-04 0.000000e+00 6.779661e-01) // 320
    (1.530808e-20 2.500000e-04 6.779661e-01) // 321
    (-2.500000e-04 3.061617e-20 6.779661e-01) // 322
    (-4.592425e-20 -2.500000e-04 6.779661e-01) // 323
    (2.125000e-04 0.000000e+00 6.779661e-01) // 324
    (1.301187e-20 2.125000e-04 6.779661e-01) // 325
    (-2.125000e-04 2.602374e-20 6.779661e-01) // 326
    (-3.903562e-20 -2.125000e-04 6.779661e-01) // 327
    (2.500000e-04 0.000000e+00 6.949153e-01) // 328
    (1.530808e-20 2.500000e-04 6.949153e-01) // 329
    (-2.500000e-04 3.061617e-20 6.949153e-01) // 330
    (-4.592425e-20 -2.500000e-04 6.949153e-01) // 331
    (2.125000e-04 0.000000e+00 6.949153e-01) // 332
    (1.301187e-20 2.125000e-04 6.949153e-01) // 333
    (-2.125000e-04 2.602374e-20 6.949153e-01) // 334
    (-3.903562e-20 -2.125000e-04 6.949153e-01) // 335
    (2.500000e-04 0.000000e+00 7.118644e-01) // 336
    (1.530808e-20 2.500000e-04 7.118644e-01) // 337
    (-2.500000e-04 3.061617e-20 7.118644e-01) // 338
    (-4.592425e-20 -2.500000e-04 7.118644e-01) // 339
    (2.125000e-04 0.000000e+00 7.118644e-01) // 340
    (1.301187e-20 2.125000e-04 7.118644e-01) // 341
    (-2.125000e-04 2.602374e-20 7.118644e-01) // 342
    (-3.903562e-20 -2.125000e-04 7.118644e-01) // 343
    (2.500000e-04 0.000000e+00 7.288136e-01) // 344
    (1.530808e-20 2.500000e-04 7.288136e-01) // 345
    (-2.500000e-04 3.061617e-20 7.288136e-01) // 346
    (-4.592425e-20 -2.500000e-04 7.288136e-01) // 347
    (2.125000e-04 0.000000e+00 7.288136e-01) // 348
    (1.301187e-20 2.125000e-04 7.288136e-01) // 349
    (-2.125000e-04 2.602374e-20 7.288136e-01) // 350
    (-3.903562e-20 -2.125000e-04 7.288136e-01) // 351
    (2.500000e-04 0.000000e+00 7.457627e-01) // 352
    (1.530808e-20 2.500000e-04 7.457627e-01) // 353
    (-2.500000e-04 3.061617e-20 7.457627e-01) // 354
    (-4.592425e-20 -2.500000e-04 7.457627e-01) // 355
    (2.125000e-04 0.000000e+00 7.457627e-01) // 356
    (1.301187e-20 2.125000e-04 7.457627e-01) // 357
    (-2.125000e-04 2.602374e-20 7.457627e-01) // 358
    (-3.903562e-20 -2.125000e-04 7.457627e-01) // 359
    (2.500000e-04 0.000000e+00 7.627119e-01) // 360
    (1.530808e-20 2.500000e-04 7.627119e-01) // 361
    (-2.500000e-04 3.061617e-20 7.627119e-01) // 362
    (-4.592425e-20 -2.500000e-04 7.627119e-01) // 363
    (2.125000e-04 0.000000e+00 7.627119e-01) // 364
    (1.301187e-20 2.125000e-04 7.627119e-01) // 365
    (-2.125000e-04 2.602374e-20 7.627119e-01) // 366
    (-3.903562e-20 -2.125000e-04 7.627119e-01) // 367
    (2.500000e-04 0.000000e+00 7.796610e-01) // 368
    (1.530808e-20 2.500000e-04 7.796610e-01) // 369
    (-2.500000e-04 3.061617e-20 7.796610e-01) // 370
    (-4.592425e-20 -2.500000e-04 7.796610e-01) // 371
    (2.125000e-04 0.000000e+00 7.796610e-01) // 372
    (1.301187e-20 2.125000e-04 7.796610e-01) // 373
    (-2.125000e-04 2.602374e-20 7.796610e-01) // 374
    (-3.903562e-20 -2.125000e-04 7.796610e-01) // 375
    (2.500000e-04 0.000000e+00 7.966102e-01) // 376
    (1.530808e-20 2.500000e-04 7.966102e-01) // 377
    (-2.500000e-04 3.061617e-20 7.966102e-01) // 378
    (-4.592425e-20 -2.500000e-04 7.966102e-01) // 379
    (2.125000e-04 0.000000e+00 7.966102e-01) // 380
    (1.301187e-20 2.125000e-04 7.966102e-01) // 381
    (-2.125000e-04 2.602374e-20 7.966102e-01) // 382
    (-3.903562e-20 -2.125000e-04 7.966102e-01) // 383
    (2.500000e-04 0.000000e+00 8.135593e-01) // 384
    (1.530808e-20 2.500000e-04 8.135593e-01) // 385
    (-2.500000e-04 3.061617e-20 8.135593e-01) // 386
    (-4.592425e-20 -2.500000e-04 8.135593e-01) // 387
    (2.125000e-04 0.000000e+00 8.135593e-01) // 388
    (1.301187e-20 2.125000e-04 8.135593e-01) // 389
    (-2.125000e-04 2.602374e-20 8.135593e-01) // 390
    (-3.903562e-20 -2.125000e-04 8.135593e-01) // 391
    (2.500000e-04 0.000000e+00 8.305085e-01) // 392
    (1.530808e-20 2.500000e-04 8.305085e-01) // 393
    (-2.500000e-04 3.061617e-20 8.305085e-01) // 394
    (-4.592425e-20 -2.500000e-04 8.305085e-01) // 395
    (2.125000e-04 0.000000e+00 8.305085e-01) // 396
    (1.301187e-20 2.125000e-04 8.305085e-01) // 397
    (-2.125000e-04 2.602374e-20 8.305085e-01) // 398
    (-3.903562e-20 -2.125000e-04 8.305085e-01) // 399
    (2.500000e-04 0.000000e+00 8.474576e-01) // 400
    (1.530808e-20 2.500000e-04 8.474576e-01) // 401
    (-2.500000e-04 3.061617e-20 8.474576e-01) // 402
    (-4.592425e-20 -2.500000e-04 8.474576e-01) // 403
    (2.125000e-04 0.000000e+00 8.474576e-01) // 404
    (1.301187e-20 2.125000e-04 8.474576e-01) // 405
    (-2.125000e-04 2.602374e-20 8.474576e-01) // 406
    (-3.903562e-20 -2.125000e-04 8.474576e-01) // 407
    (2.500000e-04 0.000000e+00 8.644068e-01) // 408
    (1.530808e-20 2.500000e-04 8.644068e-01) // 409
    (-2.500000e-04 3.061617e-20 8.644068e-01) // 410
    (-4.592425e-20 -2.500000e-04 8.644068e-01) // 411
    (2.125000e-04 0.000000e+00 8.644068e-01) // 412
    (1.301187e-20 2.125000e-04 8.644068e-01) // 413
    (-2.125000e-04 2.602374e-20 8.644068e-01) // 414
    (-3.903562e-20 -2.125000e-04 8.644068e-01) // 415
    (2.500000e-04 0.000000e+00 8.813559e-01) // 416
    (1.530808e-20 2.500000e-04 8.813559e-01) // 417
    (-2.500000e-04 3.061617e-20 8.813559e-01) // 418
    (-4.592425e-20 -2.500000e-04 8.813559e-01) // 419
    (2.125000e-04 0.000000e+00 8.813559e-01) // 420
    (1.301187e-20 2.125000e-04 8.813559e-01) // 421
    (-2.125000e-04 2.602374e-20 8.813559e-01) // 422
    (-3.903562e-20 -2.125000e-04 8.813559e-01) // 423
    (2.500000e-04 0.000000e+00 8.983051e-01) // 424
    (1.530808e-20 2.500000e-04 8.983051e-01) // 425
    (-2.500000e-04 3.061617e-20 8.983051e-01) // 426
    (-4.592425e-20 -2.500000e-04 8.983051e-01) // 427
    (2.125000e-04 0.000000e+00 8.983051e-01) // 428
    (1.301187e-20 2.125000e-04 8.983051e-01) // 429
    (-2.125000e-04 2.602374e-20 8.983051e-01) // 430
    (-3.903562e-20 -2.125000e-04 8.983051e-01) // 431
    (2.500000e-04 0.000000e+00 9.152542e-01) // 432
    (1.530808e-20 2.500000e-04 9.152542e-01) // 433
    (-2.500000e-04 3.061617e-20 9.152542e-01) // 434
    (-4.592425e-20 -2.500000e-04 9.152542e-01) // 435
    (2.125000e-04 0.000000e+00 9.152542e-01) // 436
    (1.301187e-20 2.125000e-04 9.152542e-01) // 437
    (-2.125000e-04 2.602374e-20 9.152542e-01) // 438
    (-3.903562e-20 -2.125000e-04 9.152542e-01) // 439
    (2.500000e-04 0.000000e+00 9.322034e-01) // 440
    (1.530808e-20 2.500000e-04 9.322034e-01) // 441
    (-2.500000e-04 3.061617e-20 9.322034e-01) // 442
    (-4.592425e-20 -2.500000e-04 9.322034e-01) // 443
    (2.125000e-04 0.000000e+00 9.322034e-01) // 444
    (1.301187e-20 2.125000e-04 9.322034e-01) // 445
    (-2.125000e-04 2.602374e-20 9.322034e-01) // 446
    (-3.903562e-20 -2.125000e-04 9.322034e-01) // 447
    (2.500000e-04 0.000000e+00 9.491525e-01) // 448
    (1.530808e-20 2.500000e-04 9.491525e-01) // 449
    (-2.500000e-04 3.061617e-20 9.491525e-01) // 450
    (-4.592425e-20 -2.500000e-04 9.491525e-01) // 451
    (2.125000e-04 0.000000e+00 9.491525e-01) // 452
    (1.301187e-20 2.125000e-04 9.491525e-01) // 453
    (-2.125000e-04 2.602374e-20 9.491525e-01) // 454
    (-3.903562e-20 -2.125000e-04 9.491525e-01) // 455
    (2.500000e-04 0.000000e+00 9.661017e-01) // 456
    (1.530808e-20 2.500000e-04 9.661017e-01) // 457
    (-2.500000e-04 3.061617e-20 9.661017e-01) // 458
    (-4.592425e-20 -2.500000e-04 9.661017e-01) // 459
    (2.125000e-04 0.000000e+00 9.661017e-01) // 460
    (1.301187e-20 2.125000e-04 9.661017e-01) // 461
    (-2.125000e-04 2.602374e-20 9.661017e-01) // 462
    (-3.903562e-20 -2.125000e-04 9.661017e-01) // 463
    (2.500000e-04 0.000000e+00 9.830508e-01) // 464
    (1.530808e-20 2.500000e-04 9.830508e-01) // 465
    (-2.500000e-04 3.061617e-20 9.830508e-01) // 466
    (-4.592425e-20 -2.500000e-04 9.830508e-01) // 467
    (2.125000e-04 0.000000e+00 9.830508e-01) // 468
    (1.301187e-20 2.125000e-04 9.830508e-01) // 469
    (-2.125000e-04 2.602374e-20 9.830508e-01) // 470
    (-3.903562e-20 -2.125000e-04 9.830508e-01) // 471
    (2.500000e-04 0.000000e+00 1.000000e+00) // 472
    (1.530808e-20 2.500000e-04 1.000000e+00) // 473
    (-2.500000e-04 3.061617e-20 1.000000e+00) // 474
    (-4.592425e-20 -2.500000e-04 1.000000e+00) // 475
    (2.125000e-04 0.000000e+00 1.000000e+00) // 476
    (1.301187e-20 2.125000e-04 1.000000e+00) // 477
    (-2.125000e-04 2.602374e-20 1.000000e+00) // 478
    (-3.903562e-20 -2.125000e-04 1.000000e+00) // 479
);

blocks
(
hex (0 1 5 4 8 9 13 12) pipe (10 10 60)  edgeGrading (1.000000 1.000000 1.000000 1.000000 32.199481 32.199481 32.199481 32.199481 1.000000 1.000000 1.000000 1.000000)
hex (1 2 6 5 9 10 14 13) pipe (10 10 60)  edgeGrading (1.000000 1.000000 1.000000 1.000000 32.199481 32.199481 32.199481 32.199481 1.000000 1.000000 1.000000 1.000000)
hex (2 3 7 6 10 11 15 14) pipe (10 10 60)  edgeGrading (1.000000 1.000000 1.000000 1.000000 32.199481 32.199481 32.199481 32.199481 1.000000 1.000000 1.000000 1.000000)
hex (3 0 4 7 11 8 12 15) pipe (10 10 60)  edgeGrading (1.000000 1.000000 1.000000 1.000000 32.199481 32.199481 32.199481 32.199481 1.000000 1.000000 1.000000 1.000000)
hex (4 5 6 7 12 13 14 15) pipe (10 10 60)  edgeGrading (1.000000 1.000000 1.000000 1.000000 1.000000 1.000000 1.000000 1.000000 1.000000 1.000000 1.000000 1.000000)
hex (8 9 13 12 16 17 21 20) pipe (10 10 60)  edgeGrading (1.000000 1.000000 1.000000 1.000000 32.199481 32.199481 32.199481 32.199481 1.000000 1.000000 1.000000 1.000000)
hex (9 10 14 13 17 18 22 21) pipe (10 10 60)  edgeGrading (1.000000 1.000000 1.000000 1.000000 32.199481 32.199481 32.199481 32.199481 1.000000 1.000000 1.000000 1.000000)
hex (10 11 15 14 18 19 23 22) pipe (10 10 60)  edgeGrading (1.000000 1.000000 1.000000 1.000000 32.199481 32.199481 32.199481 32.199481 1.000000 1.000000 1.000000 1.000000)
hex (11 8 12 15 19 16 20 23) pipe (10 10 60)  edgeGrading (1.000000 1.000000 1.000000 1.000000 32.199481 32.199481 32.199481 32.199481 1.000000 1.000000 1.000000 1.000000)
hex (12 13 14 15 20 21 22 23) pipe (10 10 60)  edgeGrading (1.000000 1.000000 1.000000 1.000000 1.000000 1.000000 1.000000 1.000000 1.000000 1.000000 1.000000 1.000000)
hex (16 17 21 20 24 25 29 28) pipe (10 10 60)  edgeGrading (1.000000 1.000000 1.000000 1.000000 32.199481 32.199481 32.199481 32.199481 1.000000 1.000000 1.000000 1.000000)
hex (17 18 22 21 25 26 30 29) pipe (10 10 60)  edgeGrading (1.000000 1.000000 1.000000 1.000000 32.199481 32.199481 32.199481 32.199481 1.000000 1.000000 1.000000 1.000000)
hex (18 19 23 22 26 27 31 30) pipe (10 10 60)  edgeGrading (1.000000 1.000000 1.000000 1.000000 32.199481 32.199481 32.199481 32.199481 1.000000 1.000000 1.000000 1.000000)
hex (19 16 20 23 27 24 28 31) pipe (10 10 60)  edgeGrading (1.000000 1.000000 1.000000 1.000000 32.199481 32.199481 32.199481 32.199481 1.000000 1.000000 1.000000 1.000000)
hex (20 21 22 23 28 29 30 31) pipe (10 10 60)  edgeGrading (1.000000 1.000000 1.000000 1.000000 1.000000 1.000000 1.000000 1.000000 1.000000 1.000000 1.000000 1.000000)
hex (24 25 29 28 32 33 37 36) pipe (10 10 60)  edgeGrading (1.000000 1.000000 1.000000 1.000000 32.199481 32.199481 32.199481 32.199481 1.000000 1.000000 1.000000 1.000000)
hex (25 26 30 29 33 34 38 37) pipe (10 10 60)  edgeGrading (1.000000 1.000000 1.000000 1.000000 32.199481 32.199481 32.199481 32.199481 1.000000 1.000000 1.000000 1.000000)
hex (26 27 31 30 34 35 39 38) pipe (10 10 60)  edgeGrading (1.000000 1.000000 1.000000 1.000000 32.199481 32.199481 32.199481 32.199481 1.000000 1.000000 1.000000 1.000000)
hex (27 24 28 31 35 32 36 39) pipe (10 10 60)  edgeGrading (1.000000 1.000000 1.000000 1.000000 32.199481 32.199481 32.199481 32.199481 1.000000 1.000000 1.000000 1.000000)
hex (28 29 30 31 36 37 38 39) pipe (10 10 60)  edgeGrading (1.000000 1.000000 1.000000 1.000000 1.000000 1.000000 1.000000 1.000000 1.000000 1.000000 1.000000 1.000000)
hex (32 33 37 36 40 41 45 44) pipe (10 10 60)  edgeGrading (1.000000 1.000000 1.000000 1.000000 32.199481 32.199481 32.199481 32.199481 1.000000 1.000000 1.000000 1.000000)
hex (33 34 38 37 41 42 46 45) pipe (10 10 60)  edgeGrading (1.000000 1.000000 1.000000 1.000000 32.199481 32.199481 32.199481 32.199481 1.000000 1.000000 1.000000 1.000000)
hex (34 35 39 38 42 43 47 46) pipe (10 10 60)  edgeGrading (1.000000 1.000000 1.000000 1.000000 32.199481 32.199481 32.199481 32.199481 1.000000 1.000000 1.000000 1.000000)