/*--------------------------------*- C++ -*----------------------------------*\
| =========                 |                                                 |
| \\      /  F ield         | OpenFOAM: The Open Source CFD Toolbox           |
|  \\    /   O peration     | Version:  v2512                                 |
|   \\  /    A nd           | Website:  www.openfoam.com                      |
|    \\/     M anipulation  |                                                 |
\*---------------------------------------------------------------------------*/
FoamFile
{
    version     2.0;
    format      ascii;
    class       dictionary;
    object      controlDict;
}
// * * * * * * * * * * * * * * * * * * * * * * * * * * * * * * * * * * * * * //

application         simpleFoam;
startFrom           latestTime;
startTime           0;
stopAt              endTime;
endTime             100000;
deltaT              1;
writeControl        timeStep;
writeInterval       100;
purgeWrite          0;
writeFormat         ascii;
writePrecision      12;
writeCompression    off;
timeFormat          general;
timePrecision       12;
runTimeModifiable   yes;

libs
(
    "libDAC.so"
);

<<<<<<< HEAD
=======
/*"libexternalSpecieDiffusionResistance.so"*/
/*"libDAC.so"*/

>>>>>>> d375c93b6fa2bb2b9a63b278ee42161060c661af
functions
{
    #include "FO_createScalarFields"
    #include "FO_scalarTransport"
    #include "FO_writeData"
}

// ************************************************************************* //