/*--------------------------------*- C++ -*----------------------------------*\
| =========                 |                                                 |
| \\      /  F ield         | OpenFOAM: The Open Source CFD Toolbox           |
|  \\    /   O peration     | Version:  v2512                                 |
|   \\  /    A nd           | Website:  www.openfoam.com                      |
|    \\/     M anipulation  |                                                 |
\*---------------------------------------------------------------------------*/
FoamFile
{
    version     2.0;
    format      ascii;
    class       dictionary;
    object      controlDict;
}
// * * * * * * * * * * * * * * * * * * * * * * * * * * * * * * * * * * * * * //

application         simpleFoam;
startFrom           latestTime;
startTime           0;
stopAt              endTime;
endTime             10000;
deltaT              1;
writeControl        timeStep;
writeInterval       100;
purgeWrite          0;
writeFormat         ascii;
writePrecision      12;
writeCompression    off;
timeFormat          general;
timePrecision       12;
runTimeModifiable   yes;

libs
(
    "libDAC.so"
    "libutilityFunctionObjects.so"
);

functions
{
    #include "FO_createScalarFields"
    #include "FO_scalarTransport"
    #include "FO_writeData"
<<<<<<< HEAD
=======
    #include "FO_concentrationAvg"
}
>>>>>>> 3eb5c6b0fa022f1a647dd36409ea4ab76085090f

    residuals
        {
            type    residuals;
            // no 'libs' needed here because we loaded it globally already
            fields  (p U C_CO2 C_S);
            writeFields no;   // set 'yes' if you also want residual fields written
            log     yes;      // print to solver log
        }
}
// ************************************************************************* //